21
Properties=species:S:1:pos:R:3 gdb_66432=T pbc="F F F"
C        0.06070000       1.51540000      -0.05020000
C        0.00820000       0.02270000      -0.02340000
C        0.83640000      -1.00770000      -0.77930000
C        0.86290000      -0.97730000       0.74470000
C       -0.33230000      -1.98210000       0.78930000
C       -0.70510000      -3.03470000       1.78100000
C       -0.35260000      -2.00790000      -0.73840000
C       -1.19690000      -0.98530000       0.02000000
C       -2.67560000      -0.76920000       0.02760000
H        1.10020000       1.86180000      -0.07630000
H       -0.44510000       1.92430000      -0.93320000
H       -0.41020000       1.95490000       0.83760000
H        1.64330000      -0.85540000      -1.48490000
H        1.69090000      -0.79560000       1.41900000
H       -0.87160000      -2.60930000       2.77840000
H       -1.62730000      -3.54510000       1.48110000
H        0.07790000      -3.79730000       1.87170000
H       -0.67270000      -2.79790000      -1.40690000
H       -3.20680000      -1.72660000       0.07280000
H       -2.99520000      -0.17410000       0.89180000
H       -3.01400000      -0.25010000      -0.87740000
