19
Properties=species:S:1:pos:R:3 gdb_61794=T pbc="F F F"
C       -0.03650000       1.66940000      -0.08590000
C       -0.01330000       0.14000000       0.04730000
C        0.76260000      -0.30500000       1.30400000
C        2.23680000       0.01760000       1.20540000
O        2.86990000       0.63870000       2.01830000
C       -1.44490000      -0.44720000       0.08190000
O       -2.17600000       0.03570000       1.17430000
C       -2.18540000      -0.16750000      -1.21120000
O       -3.25900000       0.38400000      -1.22390000
H        0.97470000       2.08520000      -0.05810000
H       -0.50080000       1.98730000      -1.02520000
H       -0.60580000       2.10770000       0.73800000
H        0.48600000      -0.29430000      -0.83220000
H        0.34830000       0.15390000       2.20480000
H        0.68160000      -1.39710000       1.40880000
H        2.72700000      -0.38200000       0.28410000
H       -1.35090000      -1.54900000       0.14000000
H       -2.99290000       0.40530000       0.80290000
H       -1.69110000      -0.50640000      -2.14490000
