17
Properties=species:S:1:pos:R:3 gdb_51334=T pbc="F F F"
O       -0.09560000      -0.11150000      -0.20010000
C       -0.02080000       1.09050000      -0.06250000
N        1.12970000       1.79310000       0.12990000
C        2.43680000       1.17860000       0.19030000
C        3.51590000       2.07380000      -0.42850000
C        3.84240000       2.68430000       0.88900000
C        3.19620000       1.39230000       1.53580000
C        4.54520000       0.72560000       1.23930000
N        4.83550000       1.79850000       0.22380000
H       -0.90470000       1.75880000      -0.08590000
H        1.06600000       2.79420000       0.23680000
H        2.32430000       0.15000000      -0.15730000
H        3.54300000       2.50260000      -1.42220000
H        4.05300000       3.69350000       1.21690000
H        2.66610000       1.29810000       2.48130000
H        5.27400000       0.81600000       2.04820000
H        4.54270000      -0.29950000       0.85100000
