21
Properties=species:S:1:pos:R:3 gdb_72306=T pbc="F F F"
C        0.04880000       1.43480000       0.05720000
C       -0.06720000      -0.06440000      -0.10270000
C        0.84510000      -0.76600000      -1.13240000
C        0.33640000      -2.19460000      -1.00380000
C       -0.82920000      -2.19100000      -0.32670000
C       -0.73550000      -2.39860000       1.19080000
C       -0.66660000      -0.82750000       1.16680000
C       -1.38510000      -0.75890000      -0.15720000
C       -2.74910000      -0.26080000      -0.52930000
H        1.02140000       1.71430000       0.47850000
H       -0.04520000       1.93630000      -0.91350000
H       -0.72550000       1.84020000       0.71540000
H        0.75880000      -0.26970000      -2.11160000
H        1.91210000      -0.75360000      -0.87260000
H        1.04340000      -3.01700000      -0.92990000
H       -1.65070000      -2.70440000       1.71220000
H        0.11620000      -2.97930000       1.55680000
H       -0.88760000      -0.21830000       2.04160000
H       -2.90940000       0.75880000      -0.16340000
H       -2.88590000      -0.25000000      -1.61690000
H       -3.53660000      -0.89470000      -0.10610000
