14
Properties=species:S:1:pos:R:3 gdb_20443=T pbc="F F F"
C        0.30870000       1.55380000       0.14500000
N        1.22550000       0.45440000      -0.16490000
C       -0.20700000       0.15720000       0.05970000
C       -0.55840000      -0.62670000       1.25320000
C       -1.43440000      -1.65220000       1.45100000
C       -1.30480000      -1.93300000       2.83580000
N       -0.43410000      -1.14990000       3.42270000
O        0.04140000      -0.31380000       2.41400000
H        0.45280000       1.99780000       1.12480000
H        0.01710000       2.24570000      -0.64080000
H        1.42250000       0.42670000      -1.16220000
H       -0.81450000      -0.09370000      -0.80540000
H       -2.06690000      -2.13290000       0.72380000
H       -1.81580000      -2.68080000       3.42590000
