17
Properties=species:S:1:pos:R:3 gdb_119546=T pbc="F F F"
C       -0.11310000       1.56560000      -0.07440000
C       -0.05240000       0.05700000      -0.21390000
O       -1.31780000      -0.47720000       0.20820000
C       -1.39000000      -1.83320000       0.14030000
C       -1.63500000      -2.62070000      -1.16660000
C       -2.56870000      -2.75280000      -0.01420000
O       -1.99700000      -3.70000000       0.93410000
C       -0.94240000      -2.82780000       1.19780000
O       -0.09790000      -2.93480000       2.02370000
H        0.83500000       2.00990000      -0.39110000
H       -0.91450000       1.97890000      -0.69340000
H       -0.29890000       1.84860000       0.96510000
H        0.13620000      -0.24030000      -1.25550000
H        0.74560000      -0.36770000       0.40840000
H       -1.97280000      -1.97710000      -1.97440000
H       -1.01270000      -3.46180000      -1.45480000
H       -3.63350000      -2.57880000       0.03240000
