16
Properties=species:S:1:pos:R:3 gdb_131305=T pbc="F F F"
O        0.31260000       1.26110000       0.01430000
C        0.11750000      -0.07030000       0.05130000
N        0.19120000      -0.84560000      -1.02830000
N       -0.06480000      -2.06660000      -0.54160000
N       -0.29410000      -2.12600000       0.75650000
C       -0.18460000      -0.85820000       1.17000000
C       -0.08250000      -3.21860000      -1.39890000
C        0.41550000      -4.53990000      -0.88380000
C       -1.05890000      -4.33040000      -1.13510000
H        0.50240000       1.50080000      -0.90100000
H       -0.32080000      -0.58080000       2.20140000
H        0.13330000      -2.91930000      -2.41520000
H        0.98520000      -5.16380000      -1.56330000
H        0.73990000      -4.56120000       0.14970000
H       -1.69440000      -4.21530000      -0.26520000
H       -1.52340000      -4.80720000      -1.99080000
