13
Properties=species:S:1:pos:R:3 gdb_129754=T pbc="F F F"
N        0.06030000       1.45880000      -0.12030000
C       -0.00740000       0.08590000      -0.05540000
C       -1.06630000      -0.79250000      -0.01100000
O       -0.60000000      -2.07510000      -0.02740000
N        0.77810000      -2.05080000      -0.08310000
C        1.11930000      -0.79010000      -0.10070000
O        2.38960000      -0.35680000      -0.14560000
C       -2.49570000      -0.55250000       0.04790000
O       -3.35590000      -1.40290000       0.08630000
H        0.95060000       1.84640000       0.15610000
H       -0.72310000       1.97060000       0.25510000
H        2.97280000      -1.12740000      -0.15630000
H       -2.75070000       0.53240000       0.05430000
