19
Properties=species:S:1:pos:R:3 gdb_68206=T pbc="F F F"
C        0.18220000       1.48560000      -0.02700000
C        0.02810000      -0.00850000      -0.05360000
C        0.65370000      -0.93730000      -1.12460000
C        0.58350000      -1.88380000       0.08640000
O        0.81380000      -0.73360000       0.95590000
C       -0.92870000      -2.12070000       0.30320000
C       -1.38180000      -0.62080000       0.16180000
C       -1.60770000      -3.06180000      -0.65540000
O       -1.08270000      -3.56670000      -1.61770000
H        1.23050000       1.76940000      -0.15220000
H       -0.40070000       1.94290000      -0.83320000
H       -0.17440000       1.89270000       0.92490000
H        0.09530000      -1.18460000      -2.02840000
H        1.68130000      -0.64890000      -1.34860000
H        1.26760000      -2.71540000       0.24490000
H       -1.12510000      -2.47410000       1.32160000
H       -1.85310000      -0.23940000       1.06970000
H       -2.05170000      -0.44240000      -0.68490000
H       -2.67610000      -3.27320000      -0.41690000
