22
Properties=species:S:1:pos:R:3 gdb_58534=T pbc="F F F"
C       -0.32180000       1.45110000       0.09200000
C        0.06990000      -0.02710000      -0.02950000
C        0.80110000      -0.32500000      -1.34640000
C        0.86070000      -0.51090000       1.20780000
C        2.24850000       0.11830000       1.36960000
N        0.02360000      -0.47020000       2.45920000
C        0.20500000      -1.92120000       2.73230000
C        0.89840000      -2.04690000       1.37010000
O        1.29030000      -2.95540000       0.69820000
H        0.55200000       2.10980000       0.03300000
H       -0.99710000       1.73400000      -0.72200000
H       -0.83530000       1.63860000       1.03940000
H       -0.86180000      -0.60810000      -0.02260000
H        1.68570000       0.30970000      -1.46850000
H        1.12140000      -1.36930000      -1.39650000
H        0.14150000      -0.12820000      -2.19760000
H        2.16970000       1.20270000       1.49950000
H        2.76120000      -0.28960000       2.24710000
H        2.87810000      -0.07530000       0.49750000
H        0.42170000       0.12110000       3.18040000
H        0.87010000      -2.17660000       3.56830000
H       -0.72830000      -2.48280000       2.84970000
