18
Properties=species:S:1:pos:R:3 gdb_55820=T pbc="F F F"
C       -0.13120000       1.45730000      -0.07550000
C       -0.04400000      -0.05230000       0.08790000
O        0.93820000      -0.60520000       0.54880000
N       -1.14170000      -0.74550000      -0.33920000
C       -1.19530000      -2.17040000      -0.32710000
C       -2.14570000      -2.97160000       0.55350000
C       -3.46920000      -2.22780000       0.65340000
O       -3.53850000      -2.07160000      -0.79650000
C       -2.35510000      -2.86790000      -0.94860000
H        0.17650000       1.92830000       0.86070000
H        0.57670000       1.77180000      -0.84820000
H       -1.12880000       1.81190000      -0.34750000
H       -1.92830000      -0.26970000      -0.75270000
H       -0.22330000      -2.63530000      -0.45040000
H       -1.81920000      -3.79460000       1.17400000
H       -4.30100000      -2.84690000       1.00340000
H       -3.47050000      -1.26460000       1.17620000
H       -2.32830000      -3.57780000      -1.76770000
