16
Properties=species:S:1:pos:R:3 gdb_79688=T pbc="F F F"
O        0.10970000       1.43810000      -0.14720000
C       -0.05120000       0.06060000       0.01770000
C       -0.48130000      -0.69230000       1.23000000
N       -1.59570000      -0.22020000       2.10700000
C       -2.10180000       1.11300000       1.67450000
C       -2.46170000      -0.07510000       0.88130000
C       -1.38670000      -0.61320000      -0.07240000
C       -1.66910000      -1.69010000      -1.02390000
O       -2.77430000      -2.13430000      -1.23760000
H        0.92250000       1.69520000       0.30360000
H        0.69220000      -0.52770000      -0.53020000
H        0.07100000      -1.55360000       1.58840000
H       -2.86080000       1.46900000       2.36540000
H       -1.42660000       1.85950000       1.28540000
H       -3.45060000      -0.51630000       0.85860000
H       -0.77070000      -2.09240000      -1.54560000
