21
Properties=species:S:1:pos:R:3 gdb_60364=T pbc="F F F"
C       -0.17430000       0.96510000      -0.48830000
C        0.11230000      -0.23770000       0.40570000
O        0.73090000       0.13670000       1.63160000
C       -1.14060000      -1.06560000       0.70220000
O       -1.66440000      -1.54820000      -0.52120000
C       -2.83710000      -2.33870000      -0.39440000
C       -3.37480000      -2.57160000      -1.80710000
C       -2.57760000      -3.60690000       0.30310000
C       -2.36370000      -4.64730000       0.86590000
H        0.74710000       1.51580000      -0.69540000
H       -0.62030000       0.64310000      -1.43250000
H       -0.88160000       1.64840000       0.00070000
H        0.83650000      -0.89380000      -0.09010000
H        0.18410000       0.81750000       2.03920000
H       -0.87650000      -1.89240000       1.37440000
H       -1.89010000      -0.43700000       1.21810000
H       -3.58820000      -1.77740000       0.18800000
H       -4.29830000      -3.15430000      -1.77200000
H       -3.57390000      -1.60900000      -2.28470000
H       -2.63710000      -3.11580000      -2.40160000
H       -2.17450000      -5.56500000       1.36630000
