17
Properties=species:S:1:pos:R:3 gdb_128136=T pbc="F F F"
C        0.01840000       1.48490000      -0.18270000
N        0.01870000       0.02230000      -0.05260000
C        0.64060000      -0.47260000       1.12060000
C        1.75600000      -1.29620000       1.13010000
N        2.41260000      -1.88680000       0.05660000
N        2.08430000      -1.50950000       2.42390000
N        1.21890000      -0.88830000       3.29740000
C        0.36850000      -0.27130000       2.50070000
O       -0.64530000       0.48170000       2.98370000
H        1.05170000       1.83910000      -0.25080000
H       -0.49730000       1.76220000      -1.10760000
H       -0.46380000       2.00340000       0.65830000
H       -0.93240000      -0.32200000      -0.13040000
H        2.02860000      -1.51330000      -0.80560000
H        3.41790000      -1.76070000       0.07120000
H        2.73740000      -2.18050000       2.78650000
H       -0.58160000       0.45120000       3.94700000
