18
Properties=species:S:1:pos:R:3 gdb_116564=T pbc="F F F"
C        1.10500000       0.32570000      -0.34470000
C       -0.41290000       0.38150000      -0.17030000
N       -0.97840000      -0.96490000      -0.23860000
C       -1.92530000      -1.20320000      -1.01210000
C       -2.73730000      -2.43480000      -1.35790000
C       -3.46820000      -1.45420000      -2.32040000
O       -2.62390000      -0.36710000      -1.88290000
C       -3.32990000      -1.77970000      -3.78950000
O       -2.52680000      -1.28310000      -4.53060000
H        1.54140000       1.32240000      -0.22650000
H        1.55220000      -0.34250000       0.39670000
H        1.36820000      -0.04700000      -1.33930000
H       -0.64830000       0.78500000       0.82270000
H       -0.85690000       1.05860000      -0.91100000
H       -2.17330000      -3.24020000      -1.83230000
H       -3.34130000      -2.83660000      -0.54370000
H       -4.52110000      -1.27060000      -2.07540000
H       -4.04650000      -2.56360000      -4.13030000
