19
Properties=species:S:1:pos:R:3 gdb_111637=T pbc="F F F"
C        0.25720000       1.06690000      -0.24900000
O       -0.36450000       0.00310000       0.44580000
C        0.48840000      -0.64550000       1.32380000
C        0.22870000      -2.09360000       1.63230000
C       -0.62950000      -2.88410000       0.64660000
C        0.17920000      -2.88170000      -0.63380000
C        1.33800000      -2.23400000      -0.49800000
C        1.50300000      -1.67050000       0.87190000
O        2.76850000      -1.58110000       1.44970000
H        1.09100000       0.70880000      -0.86840000
H       -0.50170000       1.51800000      -0.89250000
H        0.64010000       1.83140000       0.44340000
H        0.83020000      -0.03780000       2.16490000
H        0.27410000      -2.39660000       2.67190000
H       -0.82970000      -3.90200000       1.00410000
H       -1.60400000      -2.40480000       0.49230000
H       -0.19260000      -3.31770000      -1.55410000
H        2.08370000      -2.07990000      -1.26950000
H        3.11600000      -2.47610000       1.53900000
