12
Properties=species:S:1:pos:R:3 gdb_5180=T pbc="F F F"
O        0.31810000      -0.10680000      -0.12750000
C        0.49100000       1.04310000      -0.36780000
O        0.42530000       2.00160000       0.61390000
C        0.73250000       3.28210000       0.25820000
C        1.81640000       3.87060000      -0.33380000
N        1.60580000       5.22920000      -0.43080000
C        0.42710000       5.44890000       0.09860000
N       -0.15810000       4.29180000       0.53220000
H        0.71910000       1.48500000      -1.35300000
H        2.72640000       3.40350000      -0.67600000
H       -0.05400000       6.40940000       0.20400000
H       -1.05080000       4.17680000       0.98360000
