18
Properties=species:S:1:pos:R:3 gdb_67666=T pbc="F F F"
C       -0.04390000       1.61720000      -0.24830000
C        0.01520000       0.12420000      -0.08000000
C        0.71300000      -0.87290000      -0.90790000
C        1.74470000      -1.52450000      -0.00320000
C        1.56850000      -1.17660000       1.28440000
C        0.20190000      -0.55260000       1.28920000
C       -0.86860000      -1.32320000       1.54200000
C       -1.63980000      -1.50680000       0.23880000
N       -0.85580000      -0.79000000      -0.79490000
H        0.88990000       2.08510000       0.08140000
H       -0.20910000       1.86940000      -1.29940000
H       -0.86170000       2.04630000       0.34150000
H        0.98060000      -0.68360000      -1.94170000
H        2.55400000      -2.13140000      -0.39180000
H        2.14680000      -1.50370000       2.13850000
H       -0.91430000      -2.06680000       2.33140000
H       -1.69510000      -2.58310000       0.02660000
H       -2.67110000      -1.12550000       0.20300000
