19
Properties=species:S:1:pos:R:3 gdb_68113=T pbc="F F F"
C       -0.18930000       1.36310000      -0.01690000
C        0.06000000      -0.11150000      -0.00340000
C        0.37580000      -1.07950000      -1.17400000
C        0.07010000      -1.90880000       0.10010000
C        0.97600000      -0.95800000       0.92330000
O       -1.07390000      -1.00760000       0.37390000
C       -0.12850000      -3.37450000       0.24960000
C       -1.33590000      -3.91450000       0.88680000
O       -1.17040000      -3.95810000      -0.53270000
H        0.72010000       1.89780000      -0.30860000
H       -0.98100000       1.61040000      -0.73040000
H       -0.49320000       1.71090000       0.97490000
H       -0.38950000      -1.13930000      -1.94820000
H        1.39520000      -1.09590000      -1.56870000
H        2.05050000      -0.96340000       0.72110000
H        0.73870000      -0.89950000       1.98680000
H        0.79450000      -3.95550000       0.28450000
H       -1.29130000      -4.87700000       1.39440000
H       -2.09050000      -3.21760000       1.24320000
