21
Properties=species:S:1:pos:R:3 gdb_55856=T pbc="F F F"
C       -0.18040000       1.33820000       0.12720000
C       -0.11580000      -0.14450000      -0.14930000
O        0.69230000      -0.69690000      -0.84920000
O       -1.10160000      -0.79210000       0.52140000
C       -1.13510000      -2.19980000       0.35930000
C       -2.37150000      -2.87620000       0.86400000
C       -2.09020000      -2.81310000      -0.63110000
C       -2.95130000      -1.89720000      -1.47760000
C       -1.63470000      -4.08160000      -1.32590000
H        0.59980000       1.84650000      -0.43780000
H       -1.16200000       1.73170000      -0.15110000
H       -0.04720000       1.52490000       1.19670000
H       -0.16350000      -2.66080000       0.49560000
H       -2.26380000      -3.82100000       1.38630000
H       -3.15330000      -2.23140000       1.25090000
H       -3.22630000      -0.98820000      -0.93750000
H       -2.42180000      -1.60010000      -2.39020000
H       -3.87450000      -2.40500000      -1.77860000
H       -2.49360000      -4.69590000      -1.62100000
H       -1.06090000      -3.84740000      -2.22940000
H       -0.99960000      -4.69140000      -0.67560000
