16
Properties=species:S:1:pos:R:3 gdb_67920=T pbc="F F F"
C       -0.02390000       1.56040000       0.06810000
C        0.01080000       0.06380000       0.07830000
N       -1.23360000      -0.71820000       0.07280000
C       -0.69840000      -1.68360000       0.95750000
O       -1.15780000      -2.69020000       1.40900000
C        0.61180000      -0.91820000       1.06830000
C        1.18650000      -0.78500000      -0.36330000
C        1.08420000      -1.81800000      -1.35310000
C        0.98280000      -2.67040000      -2.19550000
H        0.96890000       1.97270000       0.26940000
H       -0.34980000       1.93760000      -0.90760000
H       -0.71970000       1.93220000       0.82590000
H       -1.70300000      -0.99090000      -0.78500000
H        1.22690000      -0.75380000       1.94200000
H        2.13300000      -0.24640000      -0.36490000
H        0.90120000      -3.43410000      -2.92890000
