19
Properties=species:S:1:pos:R:3 gdb_16808=T pbc="F F F"
C       -0.11520000       1.58240000       0.07930000
C        0.01120000       0.05330000       0.01340000
C        0.79720000      -0.45100000      -1.18510000
C        1.81040000      -1.26080000      -0.85960000
C        2.79130000      -1.92610000      -1.77110000
C        1.88330000      -1.39080000       0.63230000
N        2.18600000      -0.08580000       1.29350000
C        0.78660000      -0.55750000       1.18450000
H        0.87460000       2.03510000       0.17590000
H       -0.59340000       1.97700000      -0.82310000
H       -0.72110000       1.88910000       0.93870000
H       -1.00190000      -0.37660000      -0.00110000
H        0.56250000      -0.13250000      -2.19630000
H        2.56730000      -1.72200000      -2.82160000
H        3.81360000      -1.58340000      -1.56650000
H        2.79210000      -3.01470000      -1.63070000
H        2.23290000      -2.30510000       1.10230000
H        2.50460000      -0.27130000       2.24370000
H        0.26110000      -0.82590000       2.09510000
