20
Properties=species:S:1:pos:R:3 gdb_104251=T pbc="F F F"
C        0.04340000       1.58030000      -0.14750000
C       -0.02450000       0.05510000      -0.00570000
C       -1.44950000      -0.50430000       0.03560000
C       -2.25280000      -0.02010000       1.24160000
C       -2.23410000      -0.44160000      -1.30220000
O       -2.39980000      -1.87860000      -1.33550000
C       -1.59210000      -2.05690000      -0.16230000
C       -0.36930000      -2.82200000      -0.43040000
N        0.59830000      -3.42310000      -0.62630000
H        1.08200000       1.90570000      -0.25400000
H       -0.50130000       1.92590000      -1.03340000
H       -0.37420000       2.09470000       0.72280000
H        0.51330000      -0.40670000      -0.84100000
H        0.50650000      -0.25510000       0.90320000
H       -2.38430000       1.06550000       1.21840000
H       -3.24950000      -0.47270000       1.25800000
H       -1.74710000      -0.27790000       2.17860000
H       -3.19980000       0.07450000      -1.27380000
H       -1.65660000      -0.08520000      -2.16360000
H       -2.14440000      -2.56610000       0.63740000
