16
Properties=species:S:1:pos:R:3 gdb_50134=T pbc="F F F"
O       -0.60450000       0.91440000       0.93990000
C        0.14600000       0.78590000       0.00780000
C        1.44440000       1.55730000      -0.13630000
N        2.50070000       0.87790000      -0.94310000
C        2.67860000       2.08700000      -1.75580000
C        1.42420000       2.32790000      -2.54960000
C        1.42980000       2.75350000      -1.11360000
C        3.98650000       2.69320000      -1.99400000
O        5.01710000       2.23260000      -1.55660000
H       -0.07150000       0.09560000      -0.83650000
H        1.77850000       1.88010000       0.85420000
H        3.33990000       0.68360000      -0.40530000
H        1.46130000       3.15430000      -3.25290000
H        0.87770000       1.45510000      -2.89040000
H        1.28580000       3.78310000      -0.81500000
H        3.96600000       3.62620000      -2.59860000
