19
Properties=species:S:1:pos:R:3 gdb_103602=T pbc="F F F"
C       -0.23380000       1.63930000       0.05970000
C       -0.09850000       0.11700000      -0.06270000
C       -1.44640000      -0.59490000       0.13270000
O       -1.98290000      -0.34780000       1.41620000
C        0.79740000      -0.35590000      -1.26140000
C        1.96910000      -0.69330000      -0.30000000
O        2.96010000       0.31870000      -0.35750000
C        0.97230000      -0.47340000       0.86550000
O        0.97560000      -0.75800000       2.03460000
H        0.74440000       2.12630000       0.03050000
H       -0.83450000       2.02560000      -0.77150000
H       -0.73590000       1.89670000       0.99510000
H       -2.17750000      -0.22160000      -0.59430000
H       -1.32320000      -1.67520000      -0.05200000
H       -1.31070000      -0.61060000       2.05910000
H        0.40690000      -1.23880000      -1.77330000
H        1.04560000       0.41300000      -1.99400000
H        2.40190000      -1.70020000      -0.37640000
H        3.53920000       0.20840000       0.40540000
