23
Properties=species:S:1:pos:R:3 gdb_119163=T pbc="F F F"
C       -0.23350000       1.54160000       0.09080000
C       -0.06830000       0.05800000      -0.19850000
O       -1.26600000      -0.58810000       0.18320000
C       -1.35110000      -1.98800000       0.09740000
C       -0.33400000      -2.82340000      -0.64020000
C       -0.40770000      -2.86780000       0.87810000
C       -2.79310000      -2.39960000       0.01270000
C       -3.87030000      -1.60780000       0.70910000
C       -3.78210000      -1.60210000      -0.79840000
H        0.66740000       2.08850000      -0.20340000
H       -1.08370000       1.94720000      -0.46490000
H       -0.41060000       1.70820000       1.15700000
H        0.13240000      -0.10230000      -1.26810000
H        0.79260000      -0.33950000       0.36160000
H       -0.69850000      -3.67250000      -1.20880000
H        0.53380000      -2.34440000      -1.07750000
H        0.40070000      -2.39170000       1.42290000
H       -0.81040000      -3.75040000       1.36340000
H       -2.92040000      -3.47830000       0.00310000
H       -4.68080000      -2.15260000       1.18070000
H       -3.56560000      -0.70510000       1.22420000
H       -3.41800000      -0.69460000      -1.26490000
H       -4.53240000      -2.14020000      -1.36740000
