23
Properties=species:S:1:pos:R:3 gdb_39494=T pbc="F F F"
C       -0.02270000       1.51020000       0.07950000
C        1.31650000       0.81550000       0.01410000
C        2.26160000       0.89740000       1.19960000
C        3.15250000      -0.34070000       1.40740000
C        2.39520000      -1.67390000       1.49390000
C        1.27210000      -1.72370000       2.53500000
O        0.21940000      -0.78720000       2.34920000
C       -0.47000000      -0.90250000       1.11800000
C        0.03190000       0.00470000      -0.00240000
H       -0.28940000       1.94220000       1.03990000
H       -0.38490000       2.06880000      -0.77700000
H        1.82220000       0.85660000      -0.94900000
H        2.90860000       1.77330000       1.05840000
H        1.68330000       1.07980000       2.10710000
H        3.88250000      -0.41140000       0.59030000
H        3.73870000      -0.19540000       2.32450000
H        1.98690000      -1.93440000       0.51080000
H        3.10190000      -2.47590000       1.74420000
H        0.85350000      -2.74390000       2.56120000
H        1.67080000      -1.50690000       3.53290000
H       -0.44600000      -1.94770000       0.77240000
H       -1.51980000      -0.66380000       1.33180000
H       -0.22420000      -0.40000000      -0.97980000
