21
Properties=species:S:1:pos:R:3 gdb_90543=T pbc="F F F"
C        0.49860000       1.62640000      -0.24700000
C        0.07170000       0.18210000      -0.02930000
C        0.78030000      -0.94670000      -0.84550000
C        0.97770000      -1.76940000       0.45810000
C        2.39120000      -1.60110000       1.10010000
C        1.85680000      -0.34330000       1.87010000
C        0.43190000      -0.55750000       1.29200000
C        2.76730000      -2.73380000       2.01290000
O        3.78870000      -3.36960000       1.95100000
H        1.58220000       1.75130000      -0.14970000
H        0.22220000       1.96390000      -1.25210000
H        0.01820000       2.29850000       0.47290000
H       -1.01130000       0.10750000      -0.17650000
H        0.15840000      -1.42480000      -1.60580000
H        1.71870000      -0.64200000      -1.31980000
H        0.53360000      -2.76600000       0.48170000
H        3.20840000      -1.43380000       0.39450000
H        1.90360000      -0.45490000       2.95740000
H        2.35360000       0.59420000       1.61200000
H       -0.36500000      -0.64750000       2.03200000
H        1.99840000      -2.96470000       2.79070000
