20
Properties=species:S:1:pos:R:3 gdb_61643=T pbc="F F F"
C       -0.63970000       1.11540000       0.62100000
C        0.09530000      -0.12450000       0.16920000
N        1.34240000       0.07220000      -0.59140000
C        1.39910000      -0.59610000       0.71810000
C        2.17130000       0.10430000       1.81400000
C        1.80730000      -0.45040000       3.20530000
O        2.07580000      -1.82460000       3.29630000
C        2.55410000       0.30240000       4.28550000
O        3.27520000      -0.26200000       5.07280000
H        0.05180000       1.90510000       0.92280000
H       -1.25270000       1.51250000      -0.19530000
H       -1.30660000       0.89240000       1.46130000
H       -0.56380000      -0.92030000      -0.17750000
H        1.42090000      -0.60650000      -1.34350000
H        1.54410000      -1.67430000       0.72290000
H        3.24570000      -0.04490000       1.64990000
H        1.98580000       1.18260000       1.78080000
H        0.73140000      -0.26100000       3.37810000
H        2.68490000      -1.92180000       4.04550000
H        2.40690000       1.40150000       4.31250000
