16
Properties=species:S:1:pos:R:3 gdb_128237=T pbc="F F F"
C        0.08390000       1.43220000       0.28210000
N       -0.23480000       0.09170000      -0.20980000
C        0.52500000      -0.59000000      -1.13350000
C        0.69540000      -1.93920000      -1.05750000
N        1.36100000      -2.60540000      -2.05860000
N        1.92680000      -2.01520000      -3.11330000
N        1.82400000      -0.75420000      -3.23000000
C        1.11370000       0.06300000      -2.31180000
N        0.99080000       1.32000000      -2.54120000
H        0.94440000       1.43510000       0.96770000
H        0.30440000       2.07560000      -0.56740000
H       -0.78830000       1.81380000       0.81960000
H       -0.59610000      -0.51460000       0.51450000
H        0.31220000      -2.55190000      -0.25050000
H        1.49350000      -3.60310000      -2.03300000
H        1.47360000       1.53170000      -3.41730000
