19
Properties=species:S:1:pos:R:3 gdb_60294=T pbc="F F F"
C        0.14820000       1.53880000       0.11940000
C       -0.18800000       0.04670000       0.14130000
O        0.68440000      -0.66350000       1.02060000
C       -1.66970000      -0.18590000       0.47430000
N       -2.22570000      -1.52440000       0.37640000
C       -1.47340000      -2.53650000       0.25520000
N       -2.05510000      -3.79750000       0.14790000
C       -1.35090000      -4.96990000       0.01240000
O       -0.14670000      -5.05630000      -0.02940000
H        1.21450000       1.67720000      -0.07570000
H       -0.41960000       2.06570000      -0.65400000
H       -0.08590000       2.00650000       1.08400000
H        0.02000000      -0.38100000      -0.84750000
H        0.50590000      -0.36530000       1.91970000
H       -1.86410000       0.18390000       1.49430000
H       -2.27260000       0.45870000      -0.17930000
H       -0.38510000      -2.55880000       0.23970000
H       -3.06530000      -3.82420000       0.16930000
H       -2.02840000      -5.84260000      -0.05610000
