17
Properties=species:S:1:pos:R:3 gdb_127018=T pbc="F F F"
C       -0.12950000       1.50800000       0.01770000
C        0.00510000      -0.00130000      -0.00530000
O       -1.32660000      -0.55430000       0.02550000
C       -1.39660000      -1.88140000      -0.00220000
N       -0.40590000      -2.74960000      -0.04080000
C       -1.07790000      -3.94620000      -0.05350000
N       -0.39640000      -5.14400000      -0.15780000
N       -2.39630000      -3.87050000      -0.01760000
N       -2.58680000      -2.50200000       0.00900000
H        0.86320000       1.96680000      -0.00440000
H       -0.69330000       1.86270000      -0.84960000
H       -0.64350000       1.84040000       0.92390000
H        0.51330000      -0.35590000      -0.90780000
H        0.56330000      -0.37760000       0.85820000
H        0.52410000      -5.10920000       0.25530000
H       -0.93590000      -5.93720000       0.15800000
H       -3.51010000      -2.10740000       0.03250000
