17
Properties=species:S:1:pos:R:3 gdb_52893=T pbc="F F F"
C        0.10610000       1.49870000       0.04540000
C        0.05120000       0.04540000       0.03130000
C        0.01300000      -1.15760000       0.03020000
C       -0.01770000      -2.59590000      -0.00610000
N       -0.53580000      -3.30490000       1.20130000
C       -1.31750000      -3.38000000      -0.02630000
C       -2.65370000      -2.68600000      -0.04390000
C        1.09490000      -3.21660000      -0.69780000
N        1.98030000      -3.73190000      -1.23500000
H        1.10730000       1.85350000      -0.22110000
H       -0.60370000       1.93200000      -0.66730000
H       -0.13360000       1.89100000       1.03950000
H        0.00430000      -4.15460000       1.35030000
H       -1.26410000      -4.30780000      -0.59360000
H       -2.60540000      -1.73990000       0.49810000
H       -2.97050000      -2.48850000      -1.07260000
H       -3.40890000      -3.32040000       0.43120000
