19
Properties=species:S:1:pos:R:3 gdb_55085=T pbc="F F F"
C       -0.10670000       1.50190000      -0.26390000
C        0.05150000       0.03570000       0.10020000
O        1.12290000      -0.46640000       0.34290000
C       -1.25010000      -0.75080000       0.18150000
O       -1.10090000      -2.18270000       0.19020000
C       -1.81710000      -2.27670000       1.43650000
C       -2.77430000      -3.41150000       1.58760000
C       -1.05340000      -1.57320000       2.51290000
C       -1.92790000      -0.77030000       1.56180000
H        0.82290000       2.03540000      -0.06250000
H       -0.34740000       1.59020000      -1.33020000
H       -0.93230000       1.96220000       0.28980000
H       -1.93830000      -0.43960000      -0.61570000
H       -2.23420000      -4.36500000       1.58770000
H       -3.31800000      -3.33160000       2.53320000
H       -3.49660000      -3.43040000       0.76560000
H       -1.46460000      -1.66480000       3.51350000
H        0.02820000      -1.50820000       2.45120000
H       -2.74640000      -0.13810000       1.87810000
