17
Properties=species:S:1:pos:R:3 gdb_105962=T pbc="F F F"
O       -0.11210000       1.36180000       0.07670000
C       -0.02940000      -0.05550000      -0.00870000
C       -1.42380000      -0.58550000      -0.01630000
C       -2.64120000      -0.13920000       0.78070000
C       -3.23500000      -1.57730000       0.72530000
C       -3.24040000      -1.50680000      -0.81080000
C       -2.65480000      -0.06590000      -0.74330000
C       -2.02960000      -2.04070000      -0.08300000
O       -1.45260000      -3.27550000      -0.22770000
H        0.78130000       1.71530000       0.04060000
H        0.49760000      -0.37060000      -0.92460000
H        0.53120000      -0.47210000       0.84620000
H       -2.71290000       0.65500000       1.51160000
H       -3.89490000      -2.13260000       1.37880000
H       -3.89480000      -2.00830000      -1.51060000
H       -2.74280000       0.79340000      -1.39450000
H       -1.12860000      -3.56530000       0.63320000
