23
Properties=species:S:1:pos:R:3 gdb_113847=T pbc="F F F"
C        0.41990000       1.65400000       0.12270000
C       -0.12180000       0.23430000      -0.08380000
C        0.50530000      -0.45360000      -1.28090000
C        1.81140000      -1.20080000      -1.15800000
C        0.53620000      -1.95710000      -1.46290000
C       -0.05510000      -2.91990000      -0.47040000
C       -1.51010000      -3.40250000      -0.69070000
O       -1.10530000      -4.78570000      -0.66690000
C        0.28930000      -4.42220000      -0.62720000
H        1.50280000       1.64150000       0.28420000
H        0.22410000       2.28200000      -0.75340000
H       -0.04610000       2.13530000       0.98820000
H        0.05570000      -0.35360000       0.82390000
H       -1.21170000       0.27570000      -0.21250000
H        0.37990000       0.10500000      -2.20650000
H        2.55940000      -1.09860000      -1.93650000
H        2.22540000      -1.31290000      -0.15970000
H        0.42860000      -2.29220000      -2.49310000
H        0.10830000      -2.57620000       0.55330000
H       -2.23560000      -3.17110000       0.09820000
H       -1.93840000      -3.11620000      -1.66190000
H        0.80570000      -4.67090000      -1.56520000
H        0.81690000      -4.90160000       0.20570000
