16
Properties=species:S:1:pos:R:3 gdb_48311=T pbc="F F F"
O       -0.14050000       0.03610000       0.02500000
C        0.00210000       1.21290000      -0.17060000
C        1.30850000       1.98920000      -0.01750000
C        1.46140000       2.77940000      -1.22680000
C        1.49000000       3.40120000      -2.25620000
C        1.64460000       2.64780000       1.37490000
C        1.88840000       1.20490000       1.85690000
N        2.55830000       1.19390000       0.46110000
C        3.10440000       2.57620000       0.89170000
H       -0.83780000       1.85710000      -0.51130000
H        1.54300000       3.95740000      -3.16000000
H        1.10610000       3.47090000       1.85560000
H        2.61280000       1.07660000       2.66310000
H        1.05540000       0.51350000       1.95470000
H        3.41540000       3.20910000       0.06060000
H        3.87950000       2.49870000       1.65670000
