17
Properties=species:S:1:pos:R:3 gdb_11769=T pbc="F F F"
N        0.00770000      -1.14210000      -0.02570000
C        0.00740000       0.01440000      -0.01200000
C        0.01090000       1.45970000       0.00980000
C       -0.29000000       2.26620000       1.31560000
C        0.43260000       3.40020000       0.53390000
C        1.33900000       2.28290000      -0.05700000
C       -0.54690000       3.66880000      -0.62520000
C       -0.87360000       2.19400000      -1.03090000
H       -1.33950000       2.40390000       1.58850000
H        0.28380000       1.89870000       2.16780000
H        0.85620000       4.26220000       1.04710000
H        2.08590000       1.91710000       0.64930000
H        1.78420000       2.43590000      -1.04350000
H       -1.43450000       4.21740000      -0.29950000
H       -0.08200000       4.23130000      -1.43920000
H       -0.57650000       1.95320000      -2.05420000
H       -1.92940000       1.93930000      -0.91420000
