23
Properties=species:S:1:pos:R:3 gdb_59998=T pbc="F F F"
C       -1.99680000       1.68930000      -1.01830000
C       -1.99410000       0.17830000      -1.24940000
O       -1.19010000      -0.17070000      -2.37820000
C       -1.57290000      -0.59390000       0.00930000
C       -1.43820000      -2.12230000      -0.16590000
C       -0.90210000      -2.76090000       1.12100000
C       -2.75820000      -2.71740000      -0.62760000
C       -3.34140000      -3.97150000      -0.13360000
O       -3.84400000      -2.70900000       0.31070000
H       -2.29430000       2.21290000      -1.93090000
H       -2.68880000       1.96560000      -0.21630000
H       -0.99770000       2.04130000      -0.73090000
H       -3.00530000      -0.12870000      -1.53920000
H       -0.29290000       0.13470000      -2.20170000
H       -0.60700000      -0.19720000       0.35470000
H       -2.29610000      -0.38750000       0.80830000
H       -0.72320000      -2.29730000      -0.97950000
H       -1.64880000      -2.70640000       1.91990000
H       -0.63540000      -3.81110000       0.97110000
H       -0.00410000      -2.23830000       1.46450000
H       -3.05600000      -2.41270000      -1.63160000
H       -4.01140000      -4.53950000      -0.77830000
H       -2.82630000      -4.55810000       0.62340000
