18
Properties=species:S:1:pos:R:3 gdb_28906=T pbc="F F F"
C        0.06900000       1.50160000       0.02280000
C        0.03120000      -0.00690000       0.01300000
N       -0.05320000      -0.61460000      -1.17460000
C       -0.08770000      -1.94780000      -1.20000000
C       -0.04010000      -2.73360000      -0.05410000
C        0.04790000      -2.12810000       1.19710000
C        0.10370000      -2.90730000       2.48180000
C        0.08340000      -0.73040000       1.21330000
O        0.16980000      -0.12060000       2.43270000
H        0.99300000       1.88880000       0.47360000
H        0.01780000       1.86280000      -1.00480000
H       -0.77590000       1.93260000       0.57710000
H       -0.15640000      -2.40830000      -2.18210000
H       -0.07140000      -3.81580000      -0.13160000
H        1.02010000      -2.68380000       3.03850000
H       -0.73030000      -2.64140000       3.14020000
H        0.06650000      -3.98220000       2.29020000
H        0.18530000       0.83370000       2.30970000
