19
Properties=species:S:1:pos:R:3 gdb_84144=T pbc="F F F"
C       -0.17470000       1.31610000       0.26520000
C        0.02850000      -0.15100000       0.05820000
C       -0.33530000      -0.87490000      -1.00410000
C        0.07320000      -2.32060000      -0.91270000
O        1.02830000      -2.69530000      -1.90130000
C        0.60770000      -2.43830000       0.56270000
C        0.70270000      -1.00220000       1.11220000
C       -0.30430000      -3.33590000       1.37480000
O       -0.89900000      -3.01690000       2.37240000
H        0.78250000       1.82370000       0.44000000
H       -0.65990000       1.78560000      -0.59420000
H       -0.79080000       1.50350000       1.15330000
H       -0.83430000      -0.48740000      -1.88600000
H       -0.76300000      -3.00920000      -1.08590000
H        1.68500000      -1.99050000      -1.94130000
H        1.57460000      -2.95260000       0.51190000
H        1.73730000      -0.67900000       1.28370000
H        0.18700000      -0.93350000       2.07660000
H       -0.40570000      -4.36370000       0.95690000
