19
Properties=species:S:1:pos:R:3 gdb_101648=T pbc="F F F"
N       -0.01540000       1.50700000       0.09330000
C       -0.04820000       0.04100000      -0.05380000
C       -1.48860000      -0.49540000       0.07680000
C       -2.11190000      -0.18420000       1.44340000
O       -2.37330000       1.20150000       1.61200000
C       -3.46110000      -0.87690000       1.63470000
O       -4.03300000      -0.52690000       2.87500000
C        0.56920000      -0.41300000      -1.31700000
N        1.05140000      -0.73100000      -2.31850000
H        0.94430000       1.83850000       0.12060000
H       -0.45340000       1.94340000      -0.71430000
H        0.54790000      -0.37670000       0.76650000
H       -2.11110000      -0.06350000      -0.71580000
H       -1.46520000      -1.57930000      -0.08170000
H       -1.43230000      -0.54260000       2.23690000
H       -1.54740000       1.66740000       1.40580000
H       -4.12020000      -0.60530000       0.79260000
H       -3.33380000      -1.96470000       1.62800000
H       -3.94010000       0.43210000       2.93840000
