15
Properties=species:S:1:pos:R:3 gdb_12152=T pbc="F F F"
C       -0.07310000       1.57630000      -0.00260000
C       -0.00340000       0.05760000       0.02050000
C        0.73220000      -0.66900000      -1.16960000
N        1.67160000      -1.18970000      -0.16500000
C        1.09070000      -0.57490000       0.91830000
O        1.36540000      -0.54590000       2.08680000
C       -0.02170000      -1.66460000      -1.91390000
C       -0.64390000      -2.48240000      -2.53770000
H        0.90290000       2.01610000      -0.23250000
H       -0.79330000       1.93020000      -0.74650000
H       -0.38400000       1.94880000       0.97780000
H       -0.98230000      -0.38730000       0.21510000
H        1.20550000       0.03890000      -1.86080000
H        2.43950000      -1.84000000      -0.24700000
H       -1.19500000      -3.20650000      -3.08550000
