18
Properties=species:S:1:pos:R:3 gdb_128332=T pbc="F F F"
C        0.06630000       1.42690000      -0.03710000
N       -0.12100000      -0.01620000      -0.08290000
C        0.55430000      -0.72130000      -1.07330000
N        1.15390000      -0.10310000      -2.08770000
N        1.62430000      -1.11830000      -2.85730000
C        1.35020000      -2.34050000      -2.34800000
C        0.64850000      -2.13760000      -1.18100000
C        0.08650000      -3.16930000      -0.26040000
O        0.52630000      -4.44810000      -0.69400000
H        1.11710000       1.72830000       0.08490000
H       -0.29290000       1.86640000      -0.97080000
H       -0.52210000       1.83270000       0.78970000
H       -0.04370000      -0.45480000       0.82420000
H        2.12620000      -0.89590000      -3.69780000
H        1.65730000      -3.25410000      -2.82960000
H        0.41310000      -2.97430000       0.77820000
H       -1.01560000      -3.11120000      -0.25250000
H        0.08570000      -5.11240000      -0.15690000
