19
Properties=species:S:1:pos:R:3 gdb_54977=T pbc="F F F"
C       -0.02350000       1.47730000      -0.01750000
C        0.03520000      -0.02870000      -0.19290000
O        1.08290000      -0.61230000      -0.39900000
C       -1.24990000      -0.76220000      -0.06950000
C       -1.38020000      -2.12680000      -0.75880000
C       -1.23980000      -2.08400000       0.70420000
C       -0.17130000      -2.63160000       1.64020000
C       -1.36870000      -2.89120000       2.58070000
O       -2.30510000      -2.39730000       1.58700000
H        0.98010000       1.89940000      -0.07940000
H       -0.65940000       1.92210000      -0.79170000
H       -0.47630000       1.73150000       0.94780000
H       -2.15720000      -0.17810000       0.04070000
H       -2.35310000      -2.37360000      -1.16890000
H       -0.51490000      -2.43500000      -1.33700000
H        0.33370000      -3.52700000       1.27490000
H        0.57430000      -1.91620000       1.98490000
H       -1.56940000      -3.93780000       2.83080000
H       -1.39690000      -2.28640000       3.49380000
