21
Properties=species:S:1:pos:R:3 gdb_79327=T pbc="F F F"
C       -0.06560000       1.53950000       0.00740000
C        0.02790000       0.01010000      -0.00730000
C        0.86040000      -0.50720000      -1.17130000
C        2.26220000      -0.74520000      -0.67430000
C        2.29480000      -0.38810000       0.80000000
C        0.80470000      -0.58520000       1.21460000
C        0.53720000      -2.06990000       1.25310000
C        0.82630000      -2.73240000       0.12840000
C        1.36340000      -1.94290000      -1.00380000
H        0.92320000       2.00910000       0.02080000
H       -0.59000000       1.90710000      -0.88130000
H       -0.61720000       1.88960000       0.88660000
H       -0.98720000      -0.40490000      -0.02810000
H        0.65620000      -0.15120000      -2.17490000
H        3.13340000      -0.57630000      -1.29630000
H        2.96530000      -1.02200000       1.38880000
H        2.60820000       0.65260000       0.93350000
H        0.55330000      -0.08720000       2.15310000
H        0.14210000      -2.54880000       2.14210000
H        0.68790000      -3.80290000       0.01690000
H        1.59720000      -2.47240000      -1.92040000
