19
Properties=species:S:1:pos:R:3 gdb_104266=T pbc="F F F"
C       -0.01290000       1.42460000      -0.05790000
O        0.39130000       0.07280000      -0.12880000
C        0.79250000      -0.50580000       1.08440000
C        2.06420000       0.10970000       1.65860000
C       -0.32120000      -0.77880000       2.12930000
O       -0.01040000      -2.18700000       2.14310000
C        0.86310000      -2.06660000       0.99010000
C        0.32990000      -2.68870000      -0.20900000
C       -0.09640000      -3.23720000      -1.18940000
H        0.82220000       2.10380000       0.16120000
H       -0.42040000       1.68000000      -1.03850000
H       -0.79670000       1.58090000       0.69820000
H        1.90610000       1.14850000       1.96380000
H        2.38840000      -0.44830000       2.54170000
H        2.86550000       0.08460000       0.91350000
H       -0.20520000      -0.32560000       3.11990000
H       -1.33160000      -0.58760000       1.74650000
H        1.85420000      -2.48020000       1.21440000
H       -0.47800000      -3.71170000      -2.05940000
