18
Properties=species:S:1:pos:R:3 gdb_12824=T pbc="F F F"
C        0.01290000       1.52400000      -0.03410000
C       -0.01710000       0.01770000       0.06650000
C       -1.24750000      -0.65650000      -0.52250000
O       -1.29560000      -2.04730000      -0.29530000
C       -1.17010000      -2.36920000       1.07770000
C        0.23740000      -2.06470000       1.60250000
C        0.71360000      -0.70360000       1.12610000
O        1.21490000      -0.65080000      -0.21800000
H        0.94050000       1.91480000       0.39100000
H       -0.04110000       1.84310000      -1.08120000
H       -0.83280000       1.97260000       0.49800000
H       -2.14600000      -0.16400000      -0.10920000
H       -1.25950000      -0.52040000      -1.60950000
H       -1.91730000      -1.80720000       1.66430000
H       -1.40460000      -3.43330000       1.16870000
H        0.23690000      -2.10010000       2.69780000
H        0.94640000      -2.82140000       1.24950000
H        1.30390000      -0.11950000       1.83330000
