22
Properties=species:S:1:pos:R:3 gdb_88753=T pbc="F F F"
C        1.19080000       1.22260000      -0.54440000
C        0.10630000       0.23690000      -0.16930000
C        0.44090000      -1.07540000       0.45110000
N       -0.25130000      -0.04590000       1.22130000
C        0.41320000       0.64710000       2.31620000
C       -0.12290000       0.34830000       3.75780000
C        1.31950000       0.12600000       4.22620000
C        1.91380000      -1.02650000       3.47860000
C        1.84130000       0.31760000       2.79710000
H        2.08790000       1.09920000       0.06800000
H        1.47860000       1.08500000      -1.59230000
H        0.84420000       2.25670000      -0.43450000
H       -0.76400000       0.27620000      -0.82490000
H       -0.13570000      -1.96930000       0.22330000
H        1.49150000      -1.25580000       0.66970000
H        0.33050000       1.72140000       2.12460000
H       -0.62320000       1.20850000       4.20740000
H       -0.77940000      -0.52350000       3.83560000
H        1.74800000       0.50010000       5.14730000
H        2.91180000      -1.32650000       3.78240000
H        1.28150000      -1.85090000       3.15760000
H        2.74300000       0.82590000       2.47390000
