27
Properties=species:S:1:pos:R:3 gdb_100931=T pbc="F F F"
C       -0.57590000       0.98760000      -1.08800000
C       -0.43300000      -0.44960000      -0.57530000
C        0.14650000      -0.57400000       0.85140000
C       -0.88990000      -0.10200000       1.88500000
C        0.66230000      -2.02060000       1.09810000
C        1.96100000      -2.30340000       0.29660000
C        2.05620000      -3.71950000      -0.28170000
C        0.88070000      -2.30990000       2.58690000
O        1.39400000      -3.62940000       2.73000000
H        0.39380000       1.49790000      -1.10310000
H       -0.97200000       0.99990000      -2.10840000
H       -1.25360000       1.58440000      -0.46950000
H       -1.41230000      -0.94770000      -0.59630000
H        0.19780000      -1.00420000      -1.27830000
H        1.01690000       0.09640000       0.92250000
H       -1.74420000      -0.78870000       1.92870000
H       -0.46950000      -0.02430000       2.89130000
H       -1.27800000       0.88700000       1.62510000
H       -0.11870000      -2.71350000       0.75160000
H        2.05150000      -1.58160000      -0.52310000
H        2.82310000      -2.11920000       0.94980000
H        2.99770000      -3.86010000      -0.82350000
H        1.99860000      -4.46570000       0.51270000
H        1.23800000      -3.90960000      -0.98610000
H        1.58820000      -1.56960000       3.00000000
H       -0.06250000      -2.20880000       3.14010000
H        1.52750000      -3.79780000       3.66690000
