16
Properties=species:S:1:pos:R:3 gdb_26531=T pbc="F F F"
C        0.11680000       1.51580000       0.01200000
C       -0.01300000       0.02860000      -0.00320000
C       -1.17500000      -0.66950000       0.06900000
N       -2.42980000      -0.08660000       0.20010000
C       -1.17050000      -2.14500000       0.06900000
O       -2.22360000      -2.77750000       0.13030000
C        0.15270000      -2.73080000      -0.02060000
C        1.24360000      -1.94540000      -0.10570000
O        1.19690000      -0.60610000      -0.10320000
H        1.05960000       1.80780000       0.48200000
H        0.10400000       1.94500000      -0.99830000
H       -0.70870000       1.95630000       0.57810000
H       -2.60750000       0.72440000      -0.37320000
H       -3.14140000      -0.80410000       0.09820000
H        0.25220000      -3.80870000      -0.03450000
H        2.26280000      -2.30370000      -0.18430000
