19
Properties=species:S:1:pos:R:3 gdb_53175=T pbc="F F F"
C       -0.02270000       1.49400000       0.00810000
C        0.00560000       0.03760000       0.02040000
C        0.07370000      -1.16730000       0.01930000
C        0.05750000      -2.61850000       0.03600000
C        0.31290000      -3.32740000       1.38330000
C       -0.69870000      -2.88810000       2.39700000
C       -1.09840000      -3.92230000       1.38180000
C       -1.38490000      -3.29320000       0.01510000
O       -2.50540000      -2.47520000      -0.16340000
H        0.95990000       1.90450000      -0.24960000
H       -0.74190000       1.87280000      -0.72640000
H       -0.30340000       1.89770000       0.98700000
H        0.67990000      -3.01910000      -0.76850000
H        1.25010000      -3.79640000       1.65410000
H       -0.54860000      -3.27030000       3.40130000
H       -1.10380000      -1.88020000       2.36490000
H       -1.41650000      -4.91440000       1.67890000
H       -1.42550000      -4.05860000      -0.76480000
H       -2.28570000      -1.59760000       0.17350000
