16
Properties=species:S:1:pos:R:3 gdb_8838=T pbc="F F F"
C        0.11950000       1.50710000       0.10240000
C        0.13980000      -0.01340000      -0.04320000
C        0.83380000      -0.49150000      -1.29940000
O        1.35340000       0.25470000      -2.09850000
C        0.88940000      -2.00800000      -1.59630000
O        1.40870000      -2.24020000      -2.85830000
C        1.69330000      -2.71940000      -0.49170000
O        2.78030000      -3.19390000      -0.65620000
H        1.13470000       1.91040000       0.12180000
H       -0.40200000       1.97260000      -0.73740000
H       -0.38690000       1.79470000       1.02730000
H        0.63840000      -0.48570000       0.81570000
H       -0.87660000      -0.42970000      -0.04210000
H       -0.14130000      -2.39670000      -1.51530000
H        1.76220000      -1.38620000      -3.15670000
H        1.16880000      -2.76840000       0.49130000
