18
Properties=species:S:1:pos:R:3 gdb_36323=T pbc="F F F"
C        0.13710000      -1.24990000      -0.07660000
C        0.06730000      -0.04940000      -0.05490000
C        0.00400000       1.39570000      -0.00450000
C       -0.30950000       2.08890000       1.36190000
C        0.72930000       3.18210000       0.99810000
C        1.62640000       3.71250000       2.12140000
C        2.64870000       4.63580000       1.63030000
N        3.44730000       5.36240000       1.21830000
C        1.33690000       2.21290000      -0.04990000
H        0.19380000      -2.30990000      -0.10320000
H       -0.68300000       1.76700000      -0.77220000
H       -1.34070000       2.39750000       1.54400000
H        0.03020000       1.46820000       2.19600000
H        0.24080000       4.02470000       0.49930000
H        1.02410000       4.22990000       2.87800000
H        2.12500000       2.87850000       2.62990000
H        2.16190000       1.63040000       0.36940000
H        1.64370000       2.62170000      -1.01360000
