17
Properties=species:S:1:pos:R:3 gdb_9929=T pbc="F F F"
C       -0.03930000       1.55430000       0.14060000
C        0.01860000       0.05210000      -0.02690000
C        0.69100000      -0.62370000      -1.20020000
C        1.35650000       0.13060000      -2.33050000
C        1.34760000      -0.68360000       0.16850000
O        2.52220000       0.05970000       0.31060000
C        1.33920000      -1.93440000       0.89500000
N        1.32760000      -2.92180000       1.49850000
H        0.90950000       2.02930000      -0.11520000
H       -0.81780000       1.98380000      -0.49820000
H       -0.27990000       1.81800000       1.17600000
H       -0.84530000      -0.47630000       0.36650000
H        0.22800000      -1.55790000      -1.50450000
H        1.92700000       0.98790000      -1.97220000
H        2.04730000      -0.52440000      -2.87010000
H        0.60540000       0.48610000      -3.04350000
H        2.58170000       0.36320000       1.22400000
