23
Properties=species:S:1:pos:R:3 gdb_60348=T pbc="F F F"
C       -0.04520000       1.56490000      -0.03360000
C        0.02610000       0.03380000       0.04460000
C        0.87730000      -0.40710000       1.24400000
C       -1.39120000      -0.56620000       0.07290000
C       -1.44490000      -2.09460000      -0.01680000
C       -2.88560000      -2.62230000      -0.17410000
O       -3.53030000      -2.09310000      -1.33180000
C       -2.91670000      -4.08820000      -0.16930000
C       -2.91200000      -5.29000000      -0.20820000
H        0.95470000       2.00650000      -0.09990000
H       -0.61770000       1.89350000      -0.90730000
H       -0.53200000       1.97970000       0.85730000
H        0.52050000      -0.32620000      -0.87000000
H        1.00960000      -1.49240000       1.27910000
H        1.87410000       0.04450000       1.20410000
H        0.41120000      -0.09670000       2.18740000
H       -1.90060000      -0.23900000       0.99140000
H       -1.97160000      -0.15590000      -0.76070000
H       -0.85520000      -2.44720000      -0.87420000
H       -1.00810000      -2.56120000       0.87280000
H       -3.48630000      -2.25150000       0.66640000
H       -3.15340000      -2.53920000      -2.09860000
H       -2.92590000      -6.35180000      -0.22850000
