17
Properties=species:S:1:pos:R:3 gdb_91072=T pbc="F F F"
C        0.54650000       1.39440000       0.02980000
C        0.02090000      -0.02590000       0.00590000
O        0.49940000      -0.72530000      -1.14470000
C        1.13700000      -1.90640000      -0.74820000
C        2.68550000      -1.89340000      -0.66710000
O        3.05520000      -0.74410000       0.09130000
C        2.64180000      -1.90260000       0.81220000
C        1.09120000      -1.91580000       0.80170000
O        0.43100000      -0.73920000       1.17410000
H        1.63690000       1.37520000       0.06250000
H        0.21380000       1.92600000      -0.86620000
H        0.16030000       1.91620000       0.90990000
H       -1.08020000      -0.03730000      -0.02660000
H        0.72320000      -2.78070000      -1.25980000
H        3.41590000      -2.29680000      -1.35820000
H        3.33030000      -2.31470000       1.54020000
H        0.64820000      -2.79590000       1.27740000
