13
Properties=species:S:1:pos:R:3 gdb_132212=T pbc="F F F"
F        0.10850000       0.05900000       0.00200000
C       -0.04180000       1.37540000       0.01110000
C       -1.22300000       2.00510000       0.03060000
C       -1.28880000       3.46860000       0.03940000
N       -2.43960000       4.04920000       0.05830000
C        0.02020000       4.13300000       0.02510000
C        1.15050000       3.41130000       0.00580000
F        2.36870000       3.93230000      -0.00800000
N        1.16360000       2.03990000      -0.00180000
H       -2.14300000       1.43790000       0.04010000
H       -2.32300000       5.06420000       0.06220000
H        0.08730000       5.21320000       0.03000000
H        2.03280000       1.53170000      -0.01630000
