17
Properties=species:S:1:pos:R:3 gdb_85038=T pbc="F F F"
C       -0.05420000       1.40650000      -0.14910000
N       -0.01360000      -0.03400000      -0.07410000
C       -1.17570000      -0.88290000       0.05250000
C       -0.57260000      -2.29020000       0.08550000
O       -1.15770000      -3.34190000       0.18290000
N        0.78740000      -2.11580000      -0.01930000
C        1.75590000      -3.19360000      -0.02960000
C        1.15040000      -0.75340000      -0.11760000
O        2.28180000      -0.33650000      -0.21940000
H        0.97310000       1.76210000      -0.24100000
H       -0.62960000       1.74360000      -1.02000000
H       -0.50430000       1.83950000       0.75260000
H       -1.74340000      -0.69460000       0.97280000
H       -1.86700000      -0.78900000      -0.79480000
H        1.57040000      -3.86640000      -0.87120000
H        2.74370000      -2.74170000      -0.12340000
H        1.69490000      -3.77140000       0.89660000
