16
Properties=species:S:1:pos:R:3 gdb_128800=T pbc="F F F"
C       -0.24510000       0.50730000      -0.26560000
O       -0.08670000       0.33450000       1.13010000
C        0.99790000      -0.48280000       1.47810000
C        0.81530000      -1.93050000       1.10840000
N        1.72870000      -2.75550000       0.69250000
C        1.01140000      -3.92710000       0.56520000
N        1.62110000      -5.09860000       0.20380000
N       -0.26620000      -3.83190000       0.85840000
O       -0.39210000      -2.47580000       1.23980000
H       -0.48570000      -0.43740000      -0.77240000
H       -1.07520000       1.20260000      -0.40470000
H        0.66100000       0.93260000      -0.72280000
H        1.94230000      -0.14880000       1.02390000
H        1.10110000      -0.40820000       2.56660000
H        2.45680000      -4.97740000      -0.34690000
H        1.00080000      -5.81940000      -0.13250000
