19
Properties=species:S:1:pos:R:3 gdb_86675=T pbc="F F F"
C       -0.51410000       1.09260000      -1.27850000
C        0.23720000      -0.12970000      -0.77360000
C        1.73950000      -0.30940000      -1.15430000
C        2.06430000      -0.73580000       0.30030000
C        3.23900000      -0.09660000       0.98770000
O        3.92880000       0.76660000       0.50480000
C        0.66270000      -0.19850000       0.69890000
C        0.29900000       0.67140000       1.82060000
O       -0.12250000      -0.70150000       1.75290000
H        0.02810000       2.01450000      -1.04290000
H       -0.64210000       1.04830000      -2.36510000
H       -1.51180000       1.15970000      -0.83110000
H       -0.32260000      -1.04210000      -1.01060000
H        1.96560000      -1.03520000      -1.93610000
H        2.23050000       0.63750000      -1.39040000
H        2.09420000      -1.82070000       0.45100000
H        3.42480000      -0.45970000       2.02440000
H        1.02690000       0.89810000       2.59840000
H       -0.49370000       1.40780000       1.70140000
