19
Properties=species:S:1:pos:R:3 gdb_56237=T pbc="F F F"
N       -0.61760000       0.64170000      -1.09090000
C       -0.16640000      -0.17230000      -0.20700000
N        0.73160000       0.15370000       0.77370000
H        0.88720000      -0.48620000       1.53440000
H        0.92150000       1.12350000       0.96810000
C       -0.57410000      -1.63410000      -0.21580000
C       -1.50960000      -2.03980000      -1.35820000
C       -2.94410000      -1.45380000      -1.25650000
C       -3.40860000      -0.73320000      -2.52460000
O       -2.61920000       0.26730000      -2.92880000
O       -4.41170000      -1.03500000      -3.12080000
H       -0.25940000       1.58930000      -0.97700000
H       -1.86690000       0.40710000      -2.29000000
H        0.34690000      -2.23010000      -0.25610000
H       -1.03700000      -1.86350000       0.75440000
H       -1.04780000      -1.74740000      -2.30520000
H       -1.56930000      -3.13190000      -1.37150000
H       -3.67570000      -2.23570000      -1.04900000
H       -2.99450000      -0.73110000      -0.43360000
