13
Properties=species:S:1:pos:R:3 gdb_132848=T pbc="F F F"
F        0.11100000       0.04070000      -0.33540000
C       -0.05070000       1.32790000      -0.05570000
C       -1.23140000       1.93270000       0.07860000
N       -1.25090000       3.29250000       0.37400000
C       -0.12940000       4.07910000       0.54170000
N       -0.22310000       5.32120000       0.81160000
C        1.20580000       3.37470000       0.38530000
O        2.25820000       3.96310000       0.51080000
N        1.13730000       2.02850000       0.09340000
H       -2.17120000       1.41650000      -0.03090000
H       -2.13380000       3.76780000       0.47920000
H        0.72120000       5.70070000       0.89150000
H        2.01420000       1.53710000      -0.01540000
