23
Properties=species:S:1:pos:R:3 gdb_116439=T pbc="F F F"
C       -0.23260000       1.58190000      -0.05750000
C       -0.00110000       0.06160000      -0.00410000
C        0.76660000      -0.45120000      -1.24120000
C        2.25860000      -0.11660000      -1.16450000
O        2.84800000      -0.62440000       0.01940000
C        2.24360000      -0.09460000       1.18660000
C        0.74560000      -0.42790000       1.26140000
C        0.12900000       0.07020000       2.56470000
O        0.72490000      -0.65610000       3.63280000
H        0.69920000       2.15360000      -0.01210000
H       -0.73740000       1.85410000      -0.99060000
H       -0.86720000       1.92210000       0.76640000
H       -0.99230000      -0.41120000      -0.00480000
H        0.66490000      -1.54120000      -1.30350000
H        0.33980000      -0.03150000      -2.16020000
H        2.80200000      -0.57340000      -1.99710000
H        2.41530000       0.97420000      -1.22660000
H        2.76630000      -0.53530000       2.03760000
H        2.39480000       0.99910000       1.22880000
H        0.67130000      -1.52340000       1.28010000
H        0.30220000       1.15130000       2.68350000
H       -0.96240000      -0.08540000       2.53930000
H        0.41050000      -0.28570000       4.46240000
