19
Properties=species:S:1:pos:R:3 gdb_38922=T pbc="F F F"
C        0.05850000       1.48670000       0.09640000
C        1.33870000       0.72440000      -0.00910000
O        1.68960000       0.10370000       1.22570000
C        0.47330000      -0.70360000       1.18090000
C        0.74860000      -2.18100000       0.93010000
C       -0.47400000      -2.84800000       0.26580000
C       -0.94650000      -2.08460000      -0.95150000
C       -0.70370000      -0.78080000      -1.12490000
C        0.00020000      -0.01560000      -0.09530000
H       -0.22880000       1.93720000       1.04370000
H       -0.21200000       2.05980000      -0.78660000
H        2.12580000       0.90550000      -0.73240000
H       -0.13900000      -0.54680000       2.07820000
H        1.60640000      -2.25160000       0.25300000
H        1.02050000      -2.69130000       1.85960000
H       -0.21950000      -3.87590000      -0.01700000
H       -1.29640000      -2.94130000       0.99100000
H       -1.50110000      -2.63700000      -1.70490000
H       -1.04390000      -0.26250000      -2.01750000
