19
Properties=species:S:1:pos:R:3 gdb_104145=T pbc="F F F"
C        0.00610000       1.50810000       0.00520000
C       -0.04360000      -0.02230000      -0.03270000
C       -1.50280000      -0.51960000      -0.08720000
O       -2.19750000      -0.19550000       1.09580000
C        0.81400000      -0.62340000      -1.18420000
O        1.77590000      -1.47250000      -0.52160000
C        1.51850000      -1.34500000       0.80600000
N        2.38920000      -2.03300000       1.60140000
N        0.56200000      -0.59170000       1.18880000
H        1.03010000       1.85770000       0.16470000
H       -0.36500000       1.93160000      -0.93530000
H       -0.62140000       1.87880000       0.81840000
H       -2.04080000      -0.05040000      -0.91980000
H       -1.49470000      -1.60920000      -0.26360000
H       -1.59320000      -0.43750000       1.81170000
H        0.23620000      -1.24050000      -1.88030000
H        1.36130000       0.13560000      -1.75060000
H        2.83290000      -2.83200000       1.17710000
H        2.07970000      -2.16230000       2.55120000
