21
Properties=species:S:1:pos:R:3 gdb_105407=T pbc="F F F"
C        0.54140000      -1.12460000      -1.47120000
C        0.09440000      -0.45100000      -0.16910000
C       -1.41590000      -0.46160000       0.07030000
C       -2.22230000       0.20710000      -1.05910000
C       -1.78890000       1.63600000      -1.29860000
O       -1.31180000       2.03890000      -2.33060000
C       -2.01740000      -1.80240000       0.56890000
C       -2.32720000      -1.02610000       1.86290000
O       -1.72080000       0.17620000       1.34590000
H        1.63240000      -1.18940000      -1.51220000
H        0.14770000      -2.14420000      -1.55360000
H        0.21170000      -0.56070000      -2.34820000
H        0.56640000      -0.93900000       0.69130000
H        0.43650000       0.59120000      -0.15300000
H       -2.12650000      -0.35480000      -1.99210000
H       -3.27750000       0.21340000      -0.75800000
H       -1.93230000       2.31210000      -0.42830000
H       -2.88420000      -2.16430000       0.01350000
H       -1.29390000      -2.61310000       0.67210000
H       -3.39140000      -0.88480000       2.08760000
H       -1.82150000      -1.38010000       2.76870000
