19
Properties=species:S:1:pos:R:3 gdb_100907=T pbc="F F F"
N       -0.04050000       1.46850000       0.00640000
C        0.03500000       0.00540000      -0.03240000
C        0.73790000      -0.52080000      -1.29770000
O        0.13460000       0.01490000      -2.46800000
C        0.69660000      -0.49860000       1.27480000
C       -0.09850000      -0.06330000       2.53300000
O        0.51280000      -0.48090000       3.73420000
C        0.86150000      -1.95470000       1.26420000
N        0.97280000      -3.10480000       1.23670000
H        0.90560000       1.84840000       0.00680000
H       -0.44430000       1.77160000      -0.87700000
H       -0.99900000      -0.36930000      -0.04550000
H        1.77910000      -0.17360000      -1.30670000
H        0.75280000      -1.61770000      -1.31650000
H       -0.65790000      -0.49810000      -2.65530000
H        1.70300000      -0.05750000       1.34040000
H       -0.24330000       1.02060000       2.48130000
H       -1.08470000      -0.53720000       2.51030000
H        1.28270000       0.07350000       3.89530000
