19
Properties=species:S:1:pos:R:3 gdb_76824=T pbc="F F F"
C       -0.27090000       1.52640000      -0.16010000
C       -0.08970000       0.02480000      -0.02680000
C        1.15510000      -0.55160000      -0.83830000
O        1.75320000       0.22010000      -1.83470000
C        1.80600000      -0.57320000       0.52920000
N        2.91220000      -0.31540000       1.09790000
C        2.50450000      -0.03440000       2.50570000
C        0.95710000       0.23610000       2.46480000
N        0.60510000      -0.46200000       1.21960000
H        0.66420000       2.06810000       0.01450000
H       -0.60760000       1.76610000      -1.17250000
H       -1.01840000       1.89910000       0.54700000
H       -1.03410000      -0.50090000      -0.19270000
H        0.93710000      -1.54030000      -1.25000000
H        2.40570000       0.79100000      -1.41370000
H        2.72810000      -0.90670000       3.13210000
H        3.07340000       0.81070000       2.90200000
H        0.43090000      -0.17110000       3.33130000
H        0.73800000       1.31040000       2.39810000
