22
Properties=species:S:1:pos:R:3 gdb_59050=T pbc="F F F"
C       -0.08920000       1.56990000      -0.05490000
C        0.02010000       0.04840000       0.05800000
C        0.62260000      -0.57730000      -1.21560000
C        0.81950000      -0.38070000       1.27070000
N        1.57010000       0.41320000       1.91290000
C        2.28190000      -0.06600000       3.09220000
C        1.69820000      -1.36010000       3.66610000
C        1.44430000      -2.31680000       2.51010000
O        0.60640000      -1.70870000       1.52050000
H        0.89930000       2.02150000      -0.16880000
H       -0.69990000       1.83950000      -0.92260000
H       -0.54460000       2.00350000       0.83910000
H       -0.98280000      -0.37870000       0.19090000
H        1.62730000      -0.18150000      -1.40010000
H        0.69140000      -1.66420000      -1.12600000
H        0.00250000      -0.34220000      -2.08620000
H        3.33910000      -0.20930000       2.82760000
H        2.26620000       0.73170000       3.84350000
H        2.37320000      -1.81810000       4.39650000
H        0.75020000      -1.15170000       4.17510000
H        2.39120000      -2.61040000       2.03640000
H        0.92310000      -3.22530000       2.82230000
