19
Properties=species:S:1:pos:R:3 gdb_119439=T pbc="F F F"
C        0.00350000       1.53220000       0.02890000
C       -0.03240000       0.00980000      -0.11990000
C       -1.43660000      -0.57160000       0.11180000
C       -1.47170000      -2.05990000      -0.00120000
C       -1.59800000      -2.92800000      -1.19820000
C       -2.58510000      -3.08430000      -0.02530000
C       -1.83300000      -3.71530000       1.11240000
O       -1.98150000      -4.59130000       1.90000000
O       -0.76540000      -2.82710000       1.03200000
H        1.01290000       1.92120000      -0.13370000
H       -0.66180000       2.01900000      -0.69310000
H       -0.31440000       1.83970000       1.03120000
H        0.31420000      -0.27680000      -1.12030000
H        0.66150000      -0.45240000       0.59130000
H       -1.79820000      -0.28310000       1.10640000
H       -2.14160000      -0.15380000      -0.61770000
H       -2.04040000      -2.47320000      -2.08000000
H       -0.86120000      -3.70010000      -1.39420000
H       -3.65590000      -2.99240000      -0.13330000
