21
Properties=species:S:1:pos:R:3 gdb_110953=T pbc="F F F"
C       -0.01180000       1.58380000       0.00950000
C       -0.19070000       0.06430000      -0.10020000
C        0.62770000      -0.53110000      -1.24250000
C        2.18950000      -0.71370000      -1.11770000
C        1.90370000      -1.96280000      -0.21830000
C        0.82970000      -2.09910000      -1.36290000
C       -0.21330000      -3.16240000      -1.55260000
C        2.00360000      -1.70420000      -2.27440000
O        2.49540000      -2.01220000      -3.31710000
H        1.02570000       1.84460000       0.24340000
H       -0.27490000       2.08310000      -0.92940000
H       -0.64730000       1.99930000       0.79740000
H        0.04990000      -0.39900000       0.86110000
H       -1.24810000      -0.16330000      -0.28840000
H        0.31810000      -0.05850000      -2.18230000
H        2.94690000       0.05370000      -0.97620000
H        2.67890000      -2.73090000      -0.17380000
H        1.50910000      -1.75050000       0.77410000
H       -0.93190000      -3.17370000      -0.72630000
H       -0.76890000      -2.99910000      -2.48190000
H        0.24790000      -4.15370000      -1.61140000
