14
Properties=species:S:1:pos:R:3 gdb_25458=T pbc="F F F"
O       -0.02970000      -0.05750000      -0.00190000
C       -0.01970000       1.14400000       0.00740000
N        1.15830000       1.90010000       0.00020000
C        2.41750000       1.33520000      -0.01820000
C        3.34730000       2.34210000      -0.02040000
C        2.64420000       3.57520000      -0.00270000
C        1.29360000       3.30250000       0.00990000
C        0.19750000       4.26200000       0.02950000
O        0.37040000       5.46260000       0.03750000
H       -0.92760000       1.76450000       0.02270000
H        2.51320000       0.26230000      -0.02780000
H        4.41790000       2.20900000      -0.03330000
H        3.05920000       4.57110000       0.00060000
H       -0.83080000       3.84300000       0.03720000
