16
Properties=species:S:1:pos:R:3 gdb_14644=T pbc="F F F"
C        0.01210000       1.47550000       0.01000000
C       -0.01290000       0.02070000       0.00240000
C       -0.04010000      -1.18210000      -0.00380000
C       -0.04430000      -2.63640000      -0.01160000
O       -1.37930000      -3.11920000      -0.00140000
C       -1.41920000      -4.53360000      -0.00870000
C       -2.80150000      -4.99090000       0.00210000
C       -3.93110000      -5.39760000       0.01080000
H        1.04130000       1.85090000       0.00400000
H       -0.49610000       1.88690000      -0.86880000
H       -0.48230000       1.87740000       0.90110000
H        0.48810000      -3.01160000      -0.90350000
H        0.50510000      -3.02120000       0.86570000
H       -0.90370000      -4.93120000      -0.90050000
H       -0.88670000      -4.94080000       0.86880000
H       -4.93350000      -5.74810000       0.01850000
