17
Properties=species:S:1:pos:R:3 gdb_77144=T pbc="F F F"
C       -0.12210000       1.38920000       0.09160000
N       -0.02300000      -0.04340000      -0.03490000
C       -1.02590000      -1.09470000       0.07220000
C        0.15030000      -2.12700000       0.02100000
C        1.06510000      -0.88240000      -0.05660000
O        2.24670000      -0.67270000      -0.11460000
C       -1.80060000      -1.08770000       1.39130000
N       -3.00490000      -1.72520000       1.34410000
O       -1.36390000      -0.56230000       2.39570000
H        0.89350000       1.79000000       0.05500000
H       -0.70310000       1.82570000      -0.72950000
H       -0.58190000       1.66100000       1.04690000
H       -1.70770000      -1.14330000      -0.78700000
H        0.28440000      -2.71420000       0.93090000
H        0.17010000      -2.77700000      -0.85490000
H       -3.32180000      -2.21510000       0.52570000
H       -3.51700000      -1.84170000       2.20340000
