22
Properties=species:S:1:pos:R:3 gdb_15085=T pbc="F F F"
C       -0.17330000       0.98930000       0.79540000
C       -0.06380000      -0.38000000       0.12090000
C        0.63370000      -0.33160000      -1.24190000
O        1.94670000       0.15890000      -0.99940000
C        2.66730000       0.55240000      -2.14360000
C        0.64230000      -1.68720000      -1.92340000
C       -0.59830000      -2.18220000      -2.62480000
C        0.62120000      -1.81560000      -3.42800000
H        0.81700000       1.42980000       0.93200000
H       -0.76860000       1.68190000       0.18910000
H       -0.65410000       0.90860000       1.77510000
H        0.49630000      -1.07020000       0.76410000
H       -1.05870000      -0.81680000      -0.01970000
H        0.09670000       0.38240000      -1.89540000
H        2.93950000      -0.29720000      -2.78370000
H        2.10030000       1.27450000      -2.75310000
H        3.58370000       1.03540000      -1.79350000
H        1.22060000      -2.43370000      -1.38440000
H       -0.86230000      -3.22900000      -2.52660000
H       -1.45270000      -1.51390000      -2.67250000
H        0.57940000      -0.90360000      -4.01490000
H        1.19990000      -2.61060000      -3.88560000
