22
Properties=species:S:1:pos:R:3 gdb_103976=T pbc="F F F"
C        0.58480000       0.78910000       0.98560000
O        0.13000000      -0.54430000       0.91910000
C       -1.27520000      -0.73290000       0.77670000
C       -2.03780000      -0.13720000       1.95410000
C       -1.72800000      -0.43020000      -0.69880000
C       -1.74120000      -1.94810000      -0.97690000
C       -1.41140000      -2.24530000       0.46660000
N       -2.65350000      -2.67120000      -0.12820000
C       -3.99040000      -2.21440000       0.21420000
H        1.67620000       0.74980000       0.93870000
H        0.22240000       1.39790000       0.14400000
H        0.29650000       1.28870000       1.92070000
H       -1.97980000       0.95620000       1.95960000
H       -3.09390000      -0.40690000       1.92720000
H       -1.61370000      -0.50620000       2.89370000
H       -2.67380000       0.10120000      -0.84350000
H       -0.94370000       0.08920000      -1.25180000
H       -1.37660000      -2.42400000      -1.88110000
H       -0.74750000      -2.98930000       0.89520000
H       -4.13630000      -1.12650000       0.19130000
H       -4.69430000      -2.65710000      -0.49840000
H       -4.25140000      -2.57820000       1.21280000
