15
Properties=species:S:1:pos:R:3 gdb_25733=T pbc="F F F"
N        0.07790000       1.41650000       0.08590000
C       -0.00750000       0.03800000       0.01090000
N        1.16970000      -0.64620000      -0.08560000
H        1.96850000      -0.25360000       0.38940000
H        1.03790000      -1.65970000      -0.01140000
C       -1.18620000      -0.65800000       0.04350000
C       -1.30690000      -2.11160000      -0.01530000
O       -0.38780000      -2.92810000      -0.05900000
N       -2.68990000      -2.41940000      -0.03930000
C       -3.30510000      -1.27850000       0.01870000
N       -2.50780000      -0.16050000      -0.00170000
H        0.89310000       1.80220000      -0.37210000
H       -0.76120000       1.90800000      -0.18550000
H       -4.38240000      -1.16680000       0.06600000
H       -2.80640000       0.68830000       0.45430000
