18
Properties=species:S:1:pos:R:3 gdb_41187=T pbc="F F F"
C        0.01240000       1.58300000       0.16230000
O        1.47810000       1.52490000      -0.07480000
C        1.15050000       0.34330000      -0.92300000
C        1.21280000      -1.20830000      -1.22720000
C        1.76490000      -2.11060000      -0.13340000
C        1.18840000      -1.68950000       1.19100000
C        0.35060000      -0.65880000       1.21150000
C       -0.01260000       0.03780000      -0.08420000
N       -0.33680000      -1.13160000      -1.07960000
H       -0.21340000       1.94260000       1.17050000
H       -0.48210000       2.19480000      -0.60120000
H        0.85580000       0.78470000      -1.88630000
H        1.54810000      -1.50000000      -2.22560000
H        1.50540000      -3.15390000      -0.35520000
H        2.86180000      -2.05810000      -0.12560000
H        1.46410000      -2.23540000       2.08790000
H       -0.09580000      -0.28800000       2.12920000
H       -0.68730000      -0.73040000      -1.95170000
