16
Properties=species:S:1:pos:R:3 gdb_132529=T pbc="F F F"
C        0.00360000       1.50460000       0.03960000
C        0.00920000       0.00370000      -0.01200000
C       -0.17380000      -0.71220000      -1.19160000
N       -0.16820000      -2.04980000      -1.23420000
C        0.02120000      -2.70880000      -0.09490000
C        0.03620000      -4.20940000      -0.08830000
C        0.20310000      -1.96030000       1.07980000
F        0.39280000      -2.62170000       2.22090000
N        0.20150000      -0.65760000       1.14490000
H        0.95470000       1.87790000       0.43250000
H       -0.15960000       1.93660000      -0.95030000
H       -0.78310000       1.86170000       0.71190000
H       -0.33020000      -0.19550000      -2.13430000
H        0.99070000      -4.59350000       0.28740000
H       -0.74520000      -4.60970000       0.56660000
H       -0.12350000      -4.57710000      -1.10260000
