20
Properties=species:S:1:pos:R:3 gdb_58577=T pbc="F F F"
C        0.07210000       1.53210000      -0.01390000
C       -0.03340000       0.00980000       0.08750000
O        0.56550000      -0.46330000       1.28720000
C       -1.48330000      -0.53080000      -0.01850000
C       -2.20580000      -0.02920000      -1.27340000
C       -1.50020000      -2.08550000       0.08280000
O       -2.37100000      -2.36650000       1.20920000
C       -2.65490000      -1.16350000       1.74330000
N       -2.23320000      -0.10180000       1.19090000
H        1.10250000       1.83240000       0.19280000
H       -0.19630000       1.89530000      -1.00990000
H       -0.58760000       2.01190000       0.71560000
H        0.55240000      -0.44860000      -0.71990000
H        0.02300000      -0.12290000       2.01030000
H       -1.62420000      -0.25350000      -2.17480000
H       -3.18170000      -0.51510000      -1.36840000
H       -2.37290000       1.04860000      -1.22470000
H       -1.92160000      -2.57560000      -0.79780000
H       -0.51630000      -2.50060000       0.31170000
H       -3.26090000      -1.20500000       2.64270000
