17
Properties=species:S:1:pos:R:3 gdb_50169=T pbc="F F F"
O       -0.82820000       0.95570000       0.50680000
C        0.21210000       0.65850000      -0.02050000
C        1.42430000       1.56740000      -0.03700000
N        2.64940000       0.92160000      -0.69830000
C        2.42280000       1.91650000      -1.80800000
C        2.69540000       3.14640000      -2.74230000
N        1.13970000       3.16500000      -2.52720000
C        1.23350000       1.65490000      -2.75180000
C        1.54370000       2.81780000      -1.02890000
H        0.37100000      -0.32130000      -0.52140000
H        1.60250000       1.90430000       0.98790000
H        3.47920000       1.14150000      -0.15020000
H        3.21240000       4.00330000      -2.30620000
H        2.95940000       2.99060000      -3.79180000
H        1.44920000       1.37590000      -3.78570000
H        0.36510000       1.10910000      -2.37850000
H        1.94010000       3.69710000      -0.52000000
