16
Properties=species:S:1:pos:R:3 gdb_23891=T pbc="F F F"
C       -0.07850000       1.46870000      -0.01000000
N        0.10910000       0.02530000      -0.00660000
C        0.70110000      -0.52500000       1.20380000
C       -0.21580000      -0.56510000       2.43770000
C        1.21110000      -1.92760000       0.86910000
F        2.14460000      -1.91240000      -0.08380000
F        1.74790000      -2.52210000       1.94900000
F        0.20370000      -2.71340000       0.44030000
H        0.89690000       1.96200000       0.06590000
H       -0.52460000       1.76690000      -0.96290000
H       -0.71710000       1.86260000       0.79890000
H       -0.76350000      -0.45120000      -0.20640000
H        1.59590000       0.06650000       1.43160000
H        0.31190000      -0.94540000       3.31560000
H       -0.58160000       0.43850000       2.66700000
H       -1.07820000      -1.21270000       2.24980000
