17
Properties=species:S:1:pos:R:3 gdb_99566=T pbc="F F F"
N       -0.08110000       1.48450000       0.14650000
C       -0.00860000       0.03300000       0.00060000
C       -1.35140000      -0.53650000       0.11260000
C       -2.45870000      -0.99880000       0.15650000
C        0.66710000      -0.46560000      -1.32910000
C        2.10620000       0.07910000      -1.51050000
O        2.70370000      -0.36050000      -2.70530000
C        0.72480000      -1.92720000      -1.37920000
N        0.85260000      -3.07570000      -1.42310000
H        0.84140000       1.90470000       0.14420000
H       -0.62270000       1.89830000      -0.60570000
H        0.60170000      -0.34350000       0.83230000
H       -3.43310000      -1.41760000       0.21580000
H        0.05930000      -0.12240000      -2.17460000
H        2.06310000       1.16920000      -1.57780000
H        2.70450000      -0.18470000      -0.62410000
H        2.80460000      -1.31870000      -2.65770000
