20
Properties=species:S:1:pos:R:3 gdb_119690=T pbc="F F F"
C        0.60850000       1.44350000      -0.11130000
O        0.83740000       0.05540000      -0.10330000
C        0.01650000      -0.63860000      -1.02190000
C        0.29410000      -2.09990000      -0.89630000
C        0.27940000      -2.96240000       0.36490000
C        0.89780000      -4.07330000      -0.52690000
C       -0.22870000      -4.33460000      -1.53900000
N       -0.03650000      -2.95390000      -2.09660000
C        1.34400000      -2.93630000      -1.52640000
H        0.81950000       1.88780000      -1.09720000
H       -0.43160000       1.68890000       0.15720000
H        1.27850000       1.89030000       0.62740000
H       -1.04880000      -0.43550000      -0.81240000
H        0.21030000      -0.31310000      -2.05630000
H        0.99110000      -2.56840000       1.09300000
H       -0.67810000      -3.17880000       0.85300000
H        1.50930000      -4.86570000      -0.10020000
H        0.03650000      -5.05440000      -2.31760000
H       -1.23290000      -4.55310000      -1.15570000
H        2.23860000      -2.70940000      -2.09120000
