14
Properties=species:S:1:pos:R:3 gdb_21165=T pbc="F F F"
C        0.07130000       0.99050000       0.47060000
N       -0.20910000      -0.11060000      -0.45670000
C       -1.38130000      -0.86580000      -0.22190000
C       -1.40710000      -2.26500000       0.24140000
N       -0.15810000      -2.78480000       0.44760000
O       -2.44500000      -2.87540000       0.43820000
N       -3.53430000       0.24630000      -0.57340000
N       -2.55580000      -0.29730000      -0.39430000
H        1.03180000       1.44220000       0.20580000
H       -0.69560000       1.77970000       0.46590000
H        0.14470000       0.59070000       1.48540000
H       -0.12010000       0.18720000      -1.42210000
H        0.64200000      -2.28440000       0.09710000
H       -0.09530000      -3.77650000       0.60470000
