20
Properties=species:S:1:pos:R:3 gdb_35548=T pbc="F F F"
N       -0.03470000      -1.12050000       0.59760000
C       -0.02320000       0.00820000       0.34430000
C       -0.01630000       1.43390000       0.00910000
C       -0.74490000       2.30250000       1.07660000
C        0.32540000       2.67700000       2.11200000
C        0.72560000       1.58330000       3.14700000
C        2.10250000       1.41120000       2.44410000
C        1.71570000       2.50330000       1.40230000
C        1.42100000       2.03190000      -0.02910000
H       -0.50330000       1.52500000      -0.96700000
H       -1.11220000       3.20440000       0.57510000
H       -1.60880000       1.79170000       1.51030000
H        0.12550000       3.65560000       2.55300000
H        0.78530000       1.94880000       4.17470000
H        0.09260000       0.69270000       3.13960000
H        2.96240000       1.67660000       3.06330000
H        2.28110000       0.41920000       2.02230000
H        2.37350000       3.37460000       1.40550000
H        2.15780000       1.32110000      -0.41270000
H        1.40460000       2.89000000      -0.70970000
