18
Properties=species:S:1:pos:R:3 gdb_77532=T pbc="F F F"
C       -0.00400000       1.44760000       0.10300000
C       -0.02730000      -0.04420000      -0.03480000
C        0.61350000      -0.95500000      -1.11300000
C        0.01430000      -1.90630000      -0.04170000
N        0.50990000      -0.96780000       1.06590000
C        0.11060000      -3.33100000       0.04940000
C        0.17930000      -4.53020000       0.11450000
C       -1.26950000      -0.99440000      -0.05130000
O       -2.11200000      -1.01000000       1.04310000
H        1.01800000       1.82520000       0.21540000
H       -0.44450000       1.92110000      -0.78030000
H       -0.58280000       1.75460000       0.97980000
H        0.16910000      -0.97000000      -2.11380000
H        1.70560000      -0.94210000      -1.15470000
H        1.53430000      -0.95480000       1.06390000
H        0.23520000      -5.58890000       0.17630000
H       -1.86720000      -1.01520000      -0.96390000
H       -1.52110000      -1.01740000       1.81250000
