15
Properties=species:S:1:pos:R:3 gdb_18308=T pbc="F F F"
O       -0.17170000       0.10010000       0.45740000
C       -0.06610000       1.27930000       0.13150000
C       -1.25410000       2.19060000      -0.14430000
C       -0.88840000       3.47140000      -0.15490000
N        0.56400000       3.53750000      -0.02710000
H        0.96240000       4.11070000      -0.77240000
C        1.29890000       3.75760000       1.30490000
C        2.04690000       2.42060000       1.15100000
C        1.09260000       2.10280000      -0.00440000
H       -2.26910000       1.82470000      -0.23040000
H       -1.43960000       4.38610000      -0.32380000
H        1.86130000       4.69570000       1.30220000
H        0.55170000       3.76400000       2.09780000
H        3.10470000       2.53350000       0.88730000
H        1.97070000       1.75190000       2.01250000
