13
Properties=species:S:1:pos:R:3 gdb_15220=T pbc="F F F"
O        0.02770000       1.40070000       0.05900000
C        0.02230000       0.01750000      -0.00430000
C       -1.32780000      -0.64350000       0.07350000
C       -2.56790000       0.18460000       0.18510000
O       -3.51080000      -0.16210000       0.84960000
C       -0.52500000      -0.66570000      -1.24410000
C       -0.91800000       0.14760000      -2.35950000
N       -1.19280000       0.80690000      -3.26950000
H        0.68450000       1.74360000      -0.55810000
H        0.84690000      -0.48740000       0.49750000
H       -1.39150000      -1.59110000       0.59570000
H       -2.56310000       1.13540000      -0.37990000
H       -0.10260000      -1.62650000      -1.51830000
