16
Properties=species:S:1:pos:R:3 gdb_80191=T pbc="F F F"
N        0.40800000       1.29870000       0.45370000
C        0.02210000      -0.04560000       0.05880000
C       -1.44340000      -0.46910000       0.11590000
C       -2.38500000       0.19000000      -0.86850000
O       -1.95600000       1.36850000      -1.48390000
C       -1.71950000      -1.11670000      -1.21810000
O       -0.58290000      -1.00570000      -2.04770000
C        0.42240000      -0.31640000      -1.40940000
O        1.42730000      -0.01200000      -1.97020000
H       -0.15210000       1.96860000      -0.06430000
H        0.21010000       1.43680000       1.43920000
H        0.60710000      -0.75250000       0.66200000
H       -1.84200000      -0.87090000       1.03940000
H       -3.44690000       0.15230000      -0.62950000
H       -2.02150000       1.25950000      -2.43950000
H       -2.26660000      -2.03750000      -1.37520000
