13
Properties=species:S:1:pos:R:3 gdb_10375=T pbc="F F F"
N        0.03870000      -1.19400000       0.01820000
C        0.00510000      -0.03970000       0.00460000
C       -0.02280000       1.42080000       0.00280000
C       -0.15870000       2.03690000       1.44650000
N        1.30700000       2.18180000       1.48960000
C        1.41480000       2.06520000       0.02470000
C       -0.94290000       1.93240000      -1.00520000
N       -1.66060000       2.38040000      -1.79160000
H       -0.72840000       2.97350000       1.40620000
H       -0.58350000       1.37580000       2.20510000
H        1.65110000       3.04740000       1.88760000
H        2.22540000       1.42640000      -0.33300000
H        1.41360000       3.01200000      -0.52930000
