18
Properties=species:S:1:pos:R:3 gdb_22788=T pbc="F F F"
C       -0.30940000       1.29770000      -0.27420000
O        0.20990000       0.01120000       0.01770000
C        0.81350000      -0.61420000      -1.10710000
C        1.18440000      -2.06720000      -0.70910000
C       -0.17120000      -2.56870000      -1.31050000
O       -1.19620000      -2.77880000      -0.36510000
C       -0.23170000      -1.21910000      -2.03570000
N       -0.78050000      -0.72630000      -3.06600000
O       -1.64750000      -1.63920000      -3.67860000
H        0.49100000       1.98530000      -0.58490000
H       -1.06480000       1.25990000      -1.06970000
H       -0.76610000       1.67320000       0.64420000
H        1.58320000       0.03100000      -1.54930000
H        2.05090000      -2.43630000      -1.26250000
H        1.32070000      -2.23390000       0.36110000
H       -0.14080000      -3.45600000      -1.94510000
H       -1.23660000      -1.98510000       0.18390000
H       -1.96330000      -1.14340000      -4.44230000
