21
Properties=species:S:1:pos:R:3 gdb_120407=T pbc="F F F"
C        0.16580000       1.38410000       0.04080000
O        0.07350000      -0.01720000       0.14040000
C       -1.21670000      -0.50680000      -0.15230000
C       -1.19360000      -2.01710000       0.00450000
C       -1.04600000      -2.46620000       1.49210000
C       -2.54780000      -2.78900000       1.47580000
O       -3.38490000      -2.92620000       2.32080000
C       -2.60370000      -2.70990000      -0.06050000
C       -3.81640000      -2.07420000      -0.72830000
H        1.19380000       1.66250000       0.28480000
H       -0.06660000       1.73800000      -0.97610000
H       -0.51600000       1.89010000       0.74270000
H       -1.95870000      -0.05600000       0.53160000
H       -1.51360000      -0.22610000      -1.17720000
H       -0.44970000      -2.43390000      -0.67700000
H       -0.43910000      -3.36820000       1.61800000
H       -0.70810000      -1.71510000       2.20950000
H       -2.46600000      -3.73080000      -0.44170000
H       -3.98640000      -1.05240000      -0.37720000
H       -3.70760000      -2.04750000      -1.81700000
H       -4.71370000      -2.65370000      -0.49210000
