16
Properties=species:S:1:pos:R:3 gdb_98126=T pbc="F F F"
C       -0.02230000       1.41230000       0.03280000
N        0.01570000      -0.02920000       0.12580000
C        0.68690000      -0.66210000       1.11950000
N        1.32770000      -0.04050000       2.03700000
C        0.57120000      -2.16940000       0.98910000
O       -0.03820000      -2.73010000       0.11520000
O        1.24510000      -2.80020000       1.98730000
C        1.23780000      -4.17820000       2.01140000
N        1.86500000      -4.74410000       2.93990000
H        0.98730000       1.82630000      -0.06810000
H       -0.61600000       1.69630000      -0.83770000
H       -0.46740000       1.85220000       0.93240000
H       -0.45610000      -0.60730000      -0.54800000
H        1.75600000      -0.70400000       2.67790000
H        0.66730000      -4.61220000       1.19070000
H        1.78470000      -5.75580000       2.84830000
