14
Properties=species:S:1:pos:R:3 gdb_27858=T pbc="F F F"
N        0.04170000       1.30020000      -0.06130000
C       -0.04090000      -0.04420000      -0.02960000
N       -1.19240000      -0.64670000      -0.02170000
C       -1.09180000      -2.01890000      -0.02000000
N       -2.27780000      -2.66120000      -0.03060000
N        0.00430000      -2.73840000      -0.01510000
C        1.19350000      -2.10120000      -0.01850000
N        2.33840000      -2.63430000      -0.01390000
O        1.14890000      -0.63690000      -0.02690000
H        0.93290000       1.74400000       0.07360000
H       -0.80610000       1.82780000       0.05140000
H       -3.12700000      -2.13050000       0.03350000
H       -2.28790000      -3.66380000       0.02980000
H        3.06620000      -1.92330000      -0.01850000
