19
Properties=species:S:1:pos:R:3 gdb_59445=T pbc="F F F"
C       -0.67120000       2.46790000       1.39910000
C       -0.66600000       1.45090000       0.25470000
N        0.38920000       0.41740000       0.36290000
H        1.30350000       0.85160000       0.45590000
H        0.24900000      -0.14960000       1.19550000
H        0.04260000      -0.27960000      -1.22120000
C       -2.00720000       0.75120000       0.12560000
N       -2.93110000       1.30540000      -0.87150000
C       -2.39360000      -0.05100000      -1.06760000
C       -1.56110000      -0.29890000      -2.32070000
O       -2.09630000      -0.42870000      -3.39010000
O       -0.24040000      -0.41780000      -2.16630000
H        0.28880000       2.98970000       1.46730000
H       -1.45260000       3.21780000       1.24140000
H       -0.85930000       1.97700000       2.36150000
H       -0.48690000       1.97670000      -0.68880000
H       -2.42750000       0.41640000       1.07570000
H       -3.89490000       1.26290000      -0.55300000
H       -3.07810000      -0.87890000      -0.89120000
