16
Properties=species:S:1:pos:R:3 gdb_19554=T pbc="F F F"
C        0.09970000       1.35520000      -0.22660000
O        0.01300000      -0.00280000       0.19430000
C       -1.24370000      -0.51120000       0.12930000
C       -1.70940000      -1.94460000       0.04050000
C       -2.61870000      -1.79560000       1.25780000
C       -2.62600000      -0.28280000       0.92020000
O       -3.33850000      -0.20980000      -0.34170000
C       -2.22140000      -0.84690000      -0.94970000
H        1.15030000       1.64170000      -0.15240000
H       -0.24170000       1.46890000      -1.26300000
H       -0.50070000       2.01020000       0.41800000
H       -1.15490000      -2.80580000      -0.30920000
H       -3.59600000      -2.28750000       1.25700000
H       -2.07990000      -2.00230000       2.18580000
H       -2.91610000       0.48860000       1.63020000
H       -2.16660000      -0.92280000      -2.02720000
