16
Properties=species:S:1:pos:R:3 gdb_44729=T pbc="F F F"
O       -0.15080000       0.04260000       0.01740000
C       -0.06220000       1.23640000      -0.04180000
N       -1.01070000       2.24310000      -0.13790000
C       -0.05840000       3.34960000      -0.05420000
C        0.30260000       3.80560000       1.38520000
C        1.47720000       2.76200000       1.42170000
C        1.50760000       1.79240000       2.49590000
C        1.51390000       0.99510000       3.39560000
C        1.07930000       2.27730000      -0.02300000
H       -1.99410000       2.21340000       0.09680000
H       -0.15920000       4.10540000      -0.83330000
H        0.65190000       4.83780000       1.45490000
H       -0.48450000       3.64320000       2.12290000
H        2.43780000       3.28280000       1.37050000
H        1.52240000       0.27750000       4.17830000
H        1.87180000       2.18220000      -0.76170000
