23
Properties=species:S:1:pos:R:3 gdb_98264=T pbc="F F F"
C        0.09300000       1.51620000       0.05690000
C       -0.06940000       0.00630000      -0.09420000
C       -1.49720000      -0.48520000       0.07020000
O       -2.42590000       0.29500000       0.17570000
C       -1.71540000      -1.99690000       0.10760000
C       -1.71640000      -2.45670000       1.58090000
C       -3.02680000      -2.36600000      -0.63830000
C       -3.21890000      -3.86870000      -0.80820000
O       -4.16480000      -1.86440000       0.03710000
H        1.13340000       1.81100000      -0.10500000
H       -0.53560000       2.04790000      -0.66120000
H       -0.20660000       1.84410000       1.05590000
H        0.26650000      -0.33100000      -1.08610000
H        0.56440000      -0.54390000       0.61450000
H       -0.87380000      -2.47370000      -0.41110000
H       -1.70930000      -3.54760000       1.64480000
H       -0.83620000      -2.08870000       2.11750000
H       -2.61340000      -2.08880000       2.08300000
H       -2.95790000      -1.91680000      -1.64500000
H       -3.31650000      -4.36570000       0.16080000
H       -4.13690000      -4.05570000      -1.37180000
H       -2.38050000      -4.31540000      -1.35170000
H       -4.00000000      -0.91690000       0.15620000
