21
Properties=species:S:1:pos:R:3 gdb_100925=T pbc="F F F"
C       -0.01040000       1.35930000      -0.02190000
O       -0.03800000      -0.05010000      -0.04400000
C        0.60120000      -0.64090000      -1.16870000
C        2.12490000      -0.62890000      -1.05480000
C        0.03500000      -2.06530000      -1.28080000
O        0.49830000      -2.84450000      -0.20260000
C        0.36120000      -4.23480000      -0.41080000
C       -1.49470000      -1.97930000      -1.28180000
O       -2.14160000      -1.63720000      -2.23650000
H        1.00460000       1.75960000       0.11220000
H       -0.43390000       1.78680000      -0.94380000
H       -0.62120000       1.67670000       0.82670000
H        0.28560000      -0.11490000      -2.08420000
H        2.43610000      -1.18360000      -0.16790000
H        2.57710000      -1.09360000      -1.93690000
H        2.50400000       0.39430000      -0.98830000
H        0.35770000      -2.48690000      -2.24630000
H        0.74440000      -4.73340000       0.48220000
H       -0.68740000      -4.53430000      -0.55830000
H        0.93930000      -4.57010000      -1.28560000
H       -1.95780000      -2.24870000      -0.30760000
