17
Properties=species:S:1:pos:R:3 gdb_12799=T pbc="F F F"
C       -0.02090000       1.58180000       0.14830000
C        0.10800000       0.08730000       0.03800000
C       -0.83580000      -0.84790000       0.74600000
C        0.62350000      -0.76530000       1.16020000
C        1.57770000      -1.89460000       0.81270000
N        1.74660000      -2.16460000      -0.60900000
C        1.24220000      -1.37930000      -1.45850000
O        0.48260000      -0.26860000      -1.28480000
H        0.93880000       2.07090000      -0.04700000
H       -0.75100000       1.96040000      -0.57440000
H       -0.35320000       1.86090000       1.15190000
H       -1.58970000      -0.42180000       1.39900000
H       -1.15150000      -1.73490000       0.20560000
H        0.83420000      -0.25340000       2.09500000
H        2.57070000      -1.65890000       1.21720000
H        1.27200000      -2.82990000       1.30000000
H        1.38740000      -1.54930000      -2.52380000
