16
Properties=species:S:1:pos:R:3 gdb_38169=T pbc="F F F"
C        0.04420000       1.49410000       0.06860000
C        1.30660000       0.62900000      -0.03530000
N        2.18980000       0.44380000       1.08290000
C        1.88660000      -0.44260000       1.93410000
O        0.78960000      -1.24880000       2.01250000
C       -0.31160000      -0.95130000       1.16590000
C       -0.64720000      -1.92860000       0.01750000
O       -0.65910000      -0.83120000      -0.93550000
C       -0.04740000       0.01400000       0.03430000
H       -0.17690000       2.00700000       1.00040000
H       -0.22100000       2.03860000      -0.83160000
H        1.82040000       0.68530000      -0.98960000
H        2.55200000      -0.66560000       2.76480000
H       -1.16770000      -0.71620000       1.80570000
H        0.15840000      -2.64370000      -0.18530000
H       -1.61180000      -2.44000000       0.06080000
