17
Properties=species:S:1:pos:R:3 gdb_61486=T pbc="F F F"
N       -0.09260000       1.52770000      -0.11200000
C       -0.08070000       0.05830000      -0.01490000
C       -1.51300000      -0.50310000       0.09020000
C       -2.24990000      -0.01030000       1.35920000
O       -2.52130000       1.37710000       1.32230000
C       -3.51160000      -0.73530000       1.51530000
C       -4.53070000      -1.36030000       1.62840000
C        0.64510000      -0.57660000      -1.13420000
N        1.21480000      -1.03600000      -2.02910000
H        0.85330000       1.89490000      -0.06950000
H       -0.47980000       1.81150000      -1.00850000
H        0.45750000      -0.19820000       0.90620000
H       -2.09380000      -0.21290000      -0.79180000
H       -1.46000000      -1.59540000       0.10370000
H       -1.61210000      -0.25690000       2.22910000
H       -1.68760000       1.80120000       1.05710000
H       -5.43760000      -1.90190000       1.73910000
