21
Properties=species:S:1:pos:R:3 gdb_75466=T pbc="F F F"
C       -0.22640000       1.42560000       0.29460000
C       -0.06410000      -0.04370000       0.06640000
C        0.08270000      -0.67710000      -1.09490000
C        0.21270000      -2.15290000      -0.87040000
O        0.12720000      -2.31340000       0.54290000
C       -0.04470000      -1.05810000       1.18590000
C        0.93630000      -0.78020000       2.37010000
C       -0.26770000      -0.31470000       3.23170000
C       -1.22080000      -0.99450000       2.21290000
H        0.57370000       1.82480000       0.92950000
H       -0.21140000       1.97490000      -0.65010000
H       -1.17250000       1.65180000       0.80110000
H        0.10830000      -0.21930000      -2.07660000
H       -0.58660000      -2.73050000      -1.36160000
H        1.17060000      -2.55670000      -1.23540000
H        1.35070000      -1.72900000       2.71930000
H        1.75610000      -0.07780000       2.19720000
H       -0.30690000      -0.67480000       4.26160000
H       -0.37670000       0.77270000       3.24480000
H       -2.12880000      -0.46380000       1.91410000
H       -1.48720000      -2.01100000       2.51250000
