19
Properties=species:S:1:pos:R:3 gdb_92309=T pbc="F F F"
C        0.00870000       1.55490000       0.10040000
N        0.00920000       0.11120000       0.14820000
C       -1.25210000      -0.61390000       0.38500000
C       -0.48020000      -1.62080000       1.27020000
C        0.14340000      -2.84880000       0.55800000
N        1.56950000      -2.55980000       0.53990000
C        1.94290000      -1.29010000       0.89170000
O        3.06690000      -0.83760000       0.86520000
C        0.65530000      -0.57240000       1.29330000
H        1.03830000       1.91730000       0.02570000
H       -0.53530000       1.89540000      -0.78710000
H       -0.45960000       2.01980000       0.98920000
H       -1.98330000      -0.03570000       0.97360000
H       -1.74640000      -0.99180000      -0.51840000
H       -0.94730000      -1.88870000       2.21610000
H       -0.05800000      -3.77860000       1.10170000
H       -0.25710000      -2.96540000      -0.45810000
H        2.24380000      -3.18070000       0.12060000
H        0.77540000       0.03950000       2.19540000
