16
Properties=species:S:1:pos:R:3 gdb_125289=T pbc="F F F"
C       -0.01950000       1.43580000       0.07360000
C       -0.00120000      -0.05350000      -0.02270000
C       -0.04180000      -0.82410000      -1.12900000
C       -0.00040000      -2.22080000      -0.71870000
N       -0.00450000      -3.45090000      -1.20620000
C        0.06180000      -4.19710000      -0.06140000
N        0.10570000      -3.51920000       1.08500000
N        0.06420000      -2.25110000       0.62940000
C        0.07190000      -0.93380000       1.22420000
H        0.88130000       1.81640000       0.57100000
H       -0.07720000       1.89170000      -0.91760000
H       -0.87620000       1.78900000       0.66100000
H       -0.09600000      -0.48120000      -2.15190000
H        0.07820000      -5.27690000      -0.06990000
H        0.98450000      -0.75660000       1.80510000
H       -0.78670000      -0.78430000       1.88920000
