21
Properties=species:S:1:pos:R:3 gdb_121362=T pbc="F F F"
C        0.21020000       1.53020000      -0.10610000
C        0.51990000       0.04560000      -0.03590000
O        0.21730000      -0.53590000      -1.30420000
C        0.45760000      -1.93030000      -1.37830000
C       -0.47040000      -2.55580000      -2.43660000
O        0.31760000      -3.48550000      -3.16090000
C        1.59710000      -2.89010000      -3.29870000
C        1.89800000      -2.23890000      -1.93150000
O        2.70940000      -1.09070000      -2.00860000
H        0.83360000       2.02340000      -0.85780000
H       -0.83850000       1.69330000      -0.37000000
H        0.40360000       2.00180000       0.86190000
H        1.57610000      -0.12250000       0.21330000
H       -0.09000000      -0.44240000       0.74000000
H        0.30850000      -2.38460000      -0.39220000
H       -1.32500000      -3.09090000      -2.01720000
H       -0.84100000      -1.74620000      -3.08520000
H        2.30530000      -3.66930000      -3.58810000
H        1.59860000      -2.10500000      -4.07380000
H        2.41140000      -2.95080000      -1.27930000
H        2.10260000      -0.35840000      -2.18630000
