21
Properties=species:S:1:pos:R:3 gdb_77668=T pbc="F F F"
C       -0.12830000       1.58960000       0.11520000
C        0.09620000       0.10170000       0.00940000
C        0.62720000      -0.46210000      -1.30750000
C        1.22420000      -1.84930000      -0.96730000
C        1.68230000      -1.74120000       0.50420000
C        0.72310000      -0.73690000       1.11080000
O        1.06410000      -0.11430000       2.32450000
C       -0.76120000      -0.85640000       0.83560000
O       -1.61560000      -0.33290000       1.80740000
H        0.81200000       2.14160000       0.00670000
H       -0.80930000       1.92990000      -0.67320000
H       -0.57570000       1.86000000       1.07310000
H       -0.14350000      -0.52290000      -2.08440000
H        1.41030000       0.20790000      -1.68510000
H        0.45880000      -2.62560000      -1.06400000
H        2.04130000      -2.12900000      -1.63690000
H        1.68170000      -2.71220000       1.01470000
H        2.69840000      -1.33240000       0.57230000
H        1.22790000      -0.80810000       2.97450000
H       -1.17800000      -1.74940000       0.37510000
H       -1.04260000      -0.00390000       2.51440000
