20
Properties=species:S:1:pos:R:3 gdb_119029=T pbc="F F F"
O       -0.97190000       0.83900000      -0.94160000
C       -0.41480000       0.04280000       0.10220000
C       -1.41940000      -1.05940000       0.43380000
C       -1.51470000      -2.15630000      -0.61790000
C       -0.41950000      -3.22420000      -0.56610000
C       -0.43080000      -4.00900000       0.66430000
C       -0.45180000      -4.64140000       1.68680000
C       -2.85220000      -2.53740000      -1.13970000
N       -1.90370000      -1.79970000      -1.99140000
H       -0.28370000       1.40990000      -1.29460000
H        0.54930000      -0.38980000      -0.20420000
H       -0.23000000       0.65470000       0.99810000
H       -1.15270000      -1.51050000       1.39590000
H       -2.39600000      -0.58000000       0.56530000
H       -0.54300000      -3.87930000      -1.43500000
H        0.56320000      -2.74830000      -0.68680000
H       -0.46760000      -5.21070000       2.58280000
H       -3.04440000      -3.56180000      -1.44840000
H       -3.72050000      -2.01670000      -0.74370000
H       -2.13010000      -0.80920000      -2.02320000
