20
Properties=species:S:1:pos:R:3 gdb_118659=T pbc="F F F"
C       -0.00990000       1.38200000      -0.05300000
O       -0.00370000      -0.02530000       0.03410000
C       -1.28970000      -0.58630000       0.00090000
C       -1.14570000      -2.11540000      -0.00530000
C       -2.51420000      -2.81250000       0.13000000
C       -2.41920000      -4.33170000       0.21500000
O       -3.73620000      -4.81970000       0.40970000
C       -0.44030000      -2.55440000      -1.21580000
N        0.08700000      -2.92170000      -2.17640000
H        1.03060000       1.71210000      -0.02430000
H       -0.46920000       1.72820000      -0.99130000
H       -0.55330000       1.83980000       0.78830000
H       -1.87600000      -0.28870000       0.88630000
H       -1.84530000      -0.25700000      -0.89220000
H       -0.51450000      -2.38210000       0.85200000
H       -3.00310000      -2.44270000       1.03760000
H       -3.15610000      -2.54460000      -0.71590000
H       -1.97230000      -4.73040000      -0.70720000
H       -1.75850000      -4.61600000       1.05110000
H       -3.71190000      -5.77970000       0.36250000
