17
Properties=species:S:1:pos:R:3 gdb_72318=T pbc="F F F"
O       -0.07550000       1.30180000      -0.07900000
C       -0.06000000      -0.08770000      -0.14760000
C        0.85740000      -0.81060000      -1.15740000
C        0.32780000      -2.22400000      -0.96260000
C       -0.84230000      -2.18810000      -0.28960000
C       -0.78600000      -2.37030000       1.23750000
C       -0.69430000      -0.80600000       1.18780000
C       -1.36760000      -0.75040000      -0.15930000
O       -2.59040000      -0.29830000      -0.60170000
H        0.71170000       1.60390000       0.38640000
H        0.76010000      -0.34110000      -2.14610000
H        1.92470000      -0.80070000      -0.90020000
H        1.02510000      -3.05050000      -0.85360000
H       -1.71560000      -2.66700000       1.73600000
H        0.05550000      -2.95060000       1.62640000
H       -0.85160000      -0.14060000       2.03340000
H       -2.55120000       0.66600000      -0.60090000
