17
Properties=species:S:1:pos:R:3 gdb_14934=T pbc="F F F"
O       -0.17260000      -0.04300000      -0.02090000
C       -0.06020000       1.16990000      -0.01800000
C        1.19170000       1.89240000       0.01090000
C        1.16850000       3.25070000      -0.01660000
N        2.28000000       4.02710000      -0.02020000
C        3.60010000       3.43470000       0.16130000
C        3.64060000       2.04740000      -0.49210000
C        2.50720000       1.15190000       0.03410000
H       -0.96560000       1.82420000      -0.03820000
H        0.22350000       3.78640000      -0.06130000
H        2.18020000       5.02150000       0.08500000
H        4.34420000       4.09930000      -0.28850000
H        3.83910000       3.34950000       1.23240000
H        3.53920000       2.16930000      -1.57650000
H        4.61810000       1.59270000      -0.30600000
H        2.73670000       0.81050000       1.05260000
H        2.41800000       0.24220000      -0.56770000
