19
Properties=species:S:1:pos:R:3 gdb_120117=T pbc="F F F"
C        0.12660000       1.44470000       0.29750000
C       -0.09120000      -0.03740000       0.54190000
O        1.16360000      -0.62500000       0.87330000
C        1.09180000      -1.98580000       1.12230000
C        2.07600000      -2.62300000       2.01420000
C        2.46410000      -1.66060000       3.14960000
C        0.97490000      -1.66630000       3.57320000
O        0.40060000      -1.25890000       4.54310000
C        0.56220000      -2.55650000       2.43900000
H        0.83570000       1.60100000      -0.52040000
H       -0.81930000       1.92740000       0.03490000
H        0.52410000       1.92650000       1.19500000
H       -0.80430000      -0.20080000       1.36300000
H       -0.50340000      -0.52550000      -0.35590000
H        0.77430000      -2.58070000       0.26260000
H        2.63160000      -3.50940000       1.73760000
H        3.07630000      -2.12580000       3.92710000
H        2.89890000      -0.70470000       2.85370000
H       -0.21130000      -3.31490000       2.45860000
