25
Properties=species:S:1:pos:R:3 gdb_101021=T pbc="F F F"
C       -0.46270000       1.41440000       2.22320000
C       -0.24180000      -0.10090000       2.20350000
C        0.95650000      -0.52660000       1.34190000
O        2.14690000       0.13300000       1.77280000
C        1.13560000      -2.05070000       1.26520000
C       -0.03240000      -2.83890000       0.67990000
C       -0.38930000      -2.46570000      -0.76540000
C        2.51850000      -2.57300000       0.96110000
C        1.93960000      -2.73280000       2.34750000
H       -0.69110000       1.79030000       1.21960000
H       -1.29730000       1.68280000       2.87790000
H        0.43140000       1.93720000       2.57200000
H       -0.08550000      -0.47530000       3.22600000
H       -1.14660000      -0.59790000       1.83710000
H        0.80480000      -0.14960000       0.32240000
H        2.23320000      -0.00950000       2.72170000
H        0.22800000      -3.90360000       0.71550000
H       -0.91970000      -2.73110000       1.31620000
H        0.48310000      -2.55530000      -1.42120000
H       -1.17150000      -3.12550000      -1.15370000
H       -0.76010000      -1.43890000      -0.84520000
H        2.60350000      -3.45570000       0.33560000
H        3.31070000      -1.84460000       0.84070000
H        2.37740000      -2.13680000       3.14200000
H        1.62220000      -3.71860000       2.67090000
