15
Properties=species:S:1:pos:R:3 gdb_98926=T pbc="F F F"
C        0.08650000       1.31220000       0.40420000
C       -0.22000000       0.01060000      -0.33250000
C        0.86600000      -0.37710000      -1.30200000
O        1.85120000       0.22830000      -1.58140000
O        0.56580000      -1.64080000      -1.83710000
C        1.25300000      -2.10190000      -2.92200000
N        1.37620000      -1.43450000      -3.98280000
C        1.74430000      -3.45000000      -2.71080000
N        2.14810000      -4.52670000      -2.59050000
H        1.00560000       1.22510000       0.98910000
H        0.21930000       2.13770000      -0.29900000
H       -0.73220000       1.56300000       1.08340000
H       -0.36580000      -0.82810000       0.35780000
H       -1.15260000       0.07940000      -0.90630000
H        1.89440000      -1.95130000      -4.69220000
