13
Properties=species:S:1:pos:R:3 gdb_129452=T pbc="F F F"
N        0.02010000       1.29590000       0.02230000
C        0.02360000      -0.05440000      -0.02390000
O        1.05260000      -0.73270000      -0.08040000
C       -1.27400000      -0.73240000      -0.00500000
N       -2.49230000      -0.18080000       0.05330000
N       -3.28840000      -1.22800000       0.04330000
N       -2.71640000      -2.44010000      -0.01640000
C       -1.42150000      -2.13950000      -0.04820000
O       -0.45420000      -3.04590000      -0.11050000
H        0.89810000       1.78690000       0.01020000
H       -0.84480000       1.80750000       0.06730000
H       -4.29010000      -1.13130000       0.07900000
H        0.37590000      -2.52180000      -0.11960000
