15
Properties=species:S:1:pos:R:3 gdb_11726=T pbc="F F F"
O       -0.02270000       1.40060000      -0.17650000
C        0.02250000       0.01450000      -0.01690000
C        0.38090000      -0.57780000       1.40160000
C       -0.97820000      -1.26540000       1.41560000
N       -1.99830000      -0.19420000       1.24230000
C       -1.33640000      -0.71170000       0.04900000
C       -1.34400000      -2.59990000       1.89860000
O       -0.59290000      -3.35450000       2.46760000
H       -0.68870000       1.72250000       0.44510000
H        0.66980000      -0.38290000      -0.80060000
H        1.21260000      -1.28300000       1.37520000
H        0.53850000       0.15950000       2.19120000
H       -2.92910000      -0.60720000       1.30650000
H       -1.90100000      -1.17740000      -0.75070000
H       -2.40050000      -2.88490000       1.67330000
