22
Properties=species:S:1:pos:R:3 gdb_8482=T pbc="F F F"
C       -0.14540000       1.56170000       0.03870000
C        0.06490000       0.05210000       0.00490000
C        1.16920000      -0.54990000      -0.93050000
C        1.77990000      -1.27810000       0.27610000
C        2.34900000      -2.66780000       0.23900000
C        2.18170000      -0.24710000       1.29850000
C        0.72930000      -0.64780000       1.20630000
C       -0.02560000      -1.22950000       2.36840000
H        0.78650000       2.09630000       0.24960000
H       -0.52480000       1.92630000      -0.92250000
H       -0.87190000       1.84340000       0.80940000
H       -0.89240000      -0.43720000      -0.20910000
H        0.75940000      -1.22450000      -1.68720000
H        1.82670000       0.17120000      -1.43050000
H        3.31110000      -2.69060000      -0.28830000
H        2.52170000      -3.05600000       1.24860000
H        1.67630000      -3.36400000      -0.27590000
H        2.70370000      -0.63750000       2.16790000
H        2.52420000       0.73960000       0.99250000
H       -0.40780000      -0.44360000       3.03210000
H       -0.88500000      -1.82180000       2.03180000
H        0.61240000      -1.88260000       2.97360000
