21
Properties=species:S:1:pos:R:3 gdb_57657=T pbc="F F F"
C        0.35560000       1.52180000       0.48700000
C        0.14890000       0.03950000       0.12780000
C        0.70020000      -0.85180000       1.25790000
N       -1.29280000      -0.22900000      -0.06860000
C       -2.26530000      -0.09450000       0.86830000
O       -2.10490000       0.23740000       2.02630000
C        0.81440000      -0.37740000      -1.18680000
C        0.79720000       0.46640000      -2.41110000
N        2.05540000       0.22150000      -1.68310000
H        1.40610000       1.73290000       0.70970000
H        0.02120000       2.18810000      -0.31340000
H       -0.22680000       1.74940000       1.38130000
H        0.20930000      -0.61640000       2.20270000
H        0.52860000      -1.90810000       1.03000000
H        1.77810000      -0.69520000       1.36220000
H       -1.58990000      -0.44970000      -1.00640000
H       -3.26480000      -0.33130000       0.44860000
H        0.78680000      -1.45710000      -1.33220000
H        0.73650000      -0.00090000      -3.39010000
H        0.35080000       1.45500000      -2.35540000
H        2.29210000       1.04470000      -1.13500000
