21
Properties=species:S:1:pos:R:3 gdb_98667=T pbc="F F F"
C       -0.23650000       1.35910000      -0.09840000
N       -0.04480000      -0.07860000      -0.07250000
C        0.60650000      -0.71010000      -1.11240000
O        1.20680000      -0.12020000      -1.99660000
N        0.53570000      -2.08600000      -1.06690000
C        0.45450000      -2.96770000       0.10810000
C        1.26730000      -4.03730000      -0.68140000
C        0.49340000      -5.28200000      -1.09140000
C        1.46060000      -2.96210000      -1.79420000
H        0.55670000       1.78490000      -0.71340000
H       -1.20220000       1.65020000      -0.53330000
H       -0.17060000       1.76960000       0.91380000
H       -0.71150000      -0.62290000       0.45100000
H        0.96040000      -2.56480000       0.99480000
H       -0.56560000      -3.26320000       0.38650000
H        2.19970000      -4.31490000      -0.18510000
H       -0.44530000      -5.01360000      -1.58910000
H        1.07660000      -5.89530000      -1.78650000
H        0.24870000      -5.90260000      -0.22260000
H        1.11540000      -3.24510000      -2.79440000
H        2.46930000      -2.54410000      -1.87630000
