14
Properties=species:S:1:pos:R:3 gdb_27917=T pbc="F F F"
O       -0.01080000       1.38070000       0.11710000
C        0.03970000       0.03080000       0.03720000
C        0.07490000      -0.64260000      -1.18510000
C        0.12570000      -2.03170000      -1.13820000
O        0.16080000      -2.71730000      -2.29960000
N        0.14270000      -2.74590000      -0.01480000
C        0.10800000      -2.06910000       1.13530000
O        0.12540000      -2.79990000       2.26860000
C        0.05600000      -0.68450000       1.23350000
H       -0.01700000       1.75140000      -0.77210000
H        0.06380000      -0.12490000      -2.13650000
H        0.19330000      -3.65260000      -2.05720000
H        0.16190000      -3.72490000       1.99040000
H        0.02950000      -0.18500000       2.19130000
