19
Properties=species:S:1:pos:R:3 gdb_95867=T pbc="F F F"
O       -0.09460000       1.46890000       0.07310000
C        0.04300000       0.05620000       0.05280000
C        0.75130000      -0.48210000       1.30240000
C        0.72630000      -2.01320000       1.32280000
N       -0.66330000      -2.47770000       1.25160000
C       -1.35900000      -2.05550000       0.03860000
C       -1.37070000      -0.51650000      -0.04210000
C       -0.77970000      -2.65170000      -1.19410000
N       -0.30250000      -3.15430000      -2.12020000
H        0.78690000       1.85480000       0.09750000
H        0.60860000      -0.25980000      -0.83960000
H        1.78910000      -0.12840000       1.33070000
H        0.23870000      -0.09120000       2.18840000
H        1.34440000      -2.40480000       0.49610000
H        1.15720000      -2.38840000       2.25570000
H       -0.70320000      -3.48690000       1.34210000
H       -2.39340000      -2.41060000       0.10100000
H       -1.95960000      -0.14290000       0.80120000
H       -1.85040000      -0.18600000      -0.96700000
