22
Properties=species:S:1:pos:R:3 gdb_94874=T pbc="F F F"
C        0.43850000       1.52260000      -0.28510000
C       -0.06670000       0.11930000       0.07650000
C        0.10270000      -0.89650000      -1.11020000
C        1.47070000      -1.62520000      -0.90080000
C        1.66930000      -1.55270000       0.59320000
C        2.82970000      -1.11180000       1.50470000
C        1.87090000      -0.02790000       2.12780000
C        0.76640000      -0.52310000       1.17010000
N        0.56070000      -1.95260000       1.48610000
H        1.48320000       1.50120000      -0.61530000
H       -0.15880000       1.94900000      -1.09700000
H        0.37410000       2.20190000       0.57060000
H       -1.12760000       0.19960000       0.34690000
H       -0.71570000      -1.62370000      -1.10950000
H        0.05540000      -0.38970000      -2.07830000
H        1.46080000      -2.63680000      -1.32270000
H        2.28090000      -1.08110000      -1.40050000
H        3.21800000      -1.87570000       2.18240000
H        3.65790000      -0.66280000       0.95070000
H        1.64360000      -0.12770000       3.19160000
H        2.20520000       0.99090000       1.92280000
H       -0.20690000      -2.30890000       0.92170000
