13
Properties=species:S:1:pos:R:3 gdb_132914=T pbc="F F F"
N        0.03140000       1.39000000      -0.09320000
C       -0.03270000       0.03260000      -0.03620000
C       -1.18990000      -0.70280000      -0.01450000
C       -1.20050000      -2.13690000       0.00160000
O       -2.14760000      -2.87620000       0.01800000
O        0.08650000      -2.75610000      -0.00040000
C        1.21340000      -2.03520000      -0.01250000
C        1.20890000      -0.69390000      -0.03130000
F        2.35130000       0.01320000      -0.03640000
H        0.91600000       1.83240000       0.08810000
H       -0.79690000       1.92960000       0.09020000
H       -2.16120000      -0.22430000      -0.01430000
H        2.11990000      -2.62810000      -0.00440000
