23
Properties=species:S:1:pos:R:3 gdb_116181=T pbc="F F F"
C        0.16120000       1.50760000      -0.24770000
C       -0.04690000       0.00190000      -0.00500000
C       -1.54130000      -0.33390000       0.01170000
C        0.73080000      -0.82350000      -1.06250000
C        2.15230000      -0.94910000      -0.47450000
O        2.06110000      -0.56660000       0.89950000
C        0.68330000      -0.48480000       1.26860000
C        0.61880000       0.36250000       2.53080000
O        1.34400000      -0.24580000       3.58450000
H        1.22080000       1.77690000      -0.20970000
H       -0.22460000       1.78840000      -1.23350000
H       -0.36670000       2.11380000       0.49530000
H       -2.00970000      -0.07810000      -0.94470000
H       -1.70810000      -1.40130000       0.19150000
H       -2.06760000       0.22520000       0.79310000
H        0.27410000      -1.81230000      -1.17150000
H        0.72530000      -0.34830000      -2.04720000
H        2.53690000      -1.97430000      -0.55590000
H        2.87180000      -0.28200000      -0.96260000
H        0.31130000      -1.49250000       1.52600000
H        0.99860000       1.37250000       2.31970000
H       -0.41870000       0.45230000       2.87080000
H        2.21550000      -0.44440000       3.22240000
