17
Properties=species:S:1:pos:R:3 gdb_103588=T pbc="F F F"
C        0.06960000       1.38160000       0.08740000
O        0.03770000      -0.03550000      -0.04080000
C        0.62940000      -0.57060000      -1.18770000
C       -0.00100000      -0.08700000      -2.49410000
O        2.03490000      -0.24510000      -1.22650000
C        2.79440000      -1.38090000      -1.08360000
O        3.99070000      -1.36240000      -1.07370000
C        1.85960000      -2.53210000      -0.97080000
C        0.61410000      -2.07670000      -1.02530000
H        1.08610000       1.76850000      -0.03660000
H       -0.59950000       1.87580000      -0.62820000
H       -0.27820000       1.59930000       1.09880000
H        0.18220000       0.97960000      -2.63930000
H        0.43480000      -0.62440000      -3.33920000
H       -1.07960000      -0.26520000      -2.47460000
H        2.21290000      -3.54590000      -0.85250000
H       -0.31330000      -2.62840000      -0.95130000
