21
Properties=species:S:1:pos:R:3 gdb_115834=T pbc="F F F"
O        0.36500000       1.00290000       0.51060000
C        0.04340000      -0.27640000       0.01050000
C       -1.46850000      -0.48120000      -0.06750000
C       -1.88870000      -1.93690000      -0.35760000
C       -2.24690000      -2.48200000       1.03820000
C       -2.76780000      -1.23510000       1.71920000
C       -4.23150000      -0.99760000       1.98910000
C       -3.23470000      -1.14410000       3.13100000
O       -2.00530000      -0.15110000       1.23020000
H       -0.17810000       1.11190000       1.30130000
H        0.48170000      -0.35440000      -0.99090000
H        0.48250000      -1.07640000       0.63180000
H       -1.88790000       0.22300000      -0.79630000
H       -2.76420000      -1.95870000      -1.01210000
H       -1.09220000      -2.50440000      -0.84680000
H       -2.97920000      -3.29170000       1.00930000
H       -1.35210000      -2.85070000       1.55260000
H       -4.61280000      -0.00180000       1.79360000
H       -4.93560000      -1.80370000       1.81010000
H       -3.25550000      -2.04890000       3.72970000
H       -2.97250000      -0.24540000       3.67810000
