23
Properties=species:S:1:pos:R:3 gdb_119745=T pbc="F F F"
C        0.17790000       1.54000000       0.13970000
C        0.04590000       0.05350000       0.01890000
C       -1.07300000      -0.67850000      -0.08470000
C       -2.49390000      -0.19370000      -0.11470000
C       -3.11970000      -0.25580000      -1.51090000
O       -4.47340000       0.15690000      -1.39450000
C       -0.75880000      -2.16400000      -0.11620000
C        0.76470000      -2.21200000      -0.37010000
C        1.28200000      -0.82310000       0.06820000
H        0.78470000       1.94880000      -0.67890000
H       -0.78700000       2.05250000       0.12750000
H        0.69360000       1.81370000       1.06980000
H       -3.11400000      -0.80660000       0.55290000
H       -2.57340000       0.83710000       0.24420000
H       -2.55590000       0.40040000      -2.19240000
H       -3.04940000      -1.27960000      -1.91070000
H       -4.87360000       0.12460000      -2.26810000
H       -1.02920000      -2.62530000       0.84590000
H       -1.32710000      -2.70950000      -0.87900000
H        1.25910000      -3.03710000       0.14910000
H        0.95050000      -2.34710000      -1.44060000
H        2.08860000      -0.45080000      -0.57550000
H        1.69440000      -0.84000000       1.08870000
