12
Properties=species:S:1:pos:R:3 gdb_133467=T pbc="F F F"
F        0.31550000       0.10450000       0.25650000
C       -0.02110000       1.38970000       0.03360000
F        1.08670000       2.06870000      -0.27710000
F       -0.81150000       1.40120000      -1.05160000
C       -0.69290000       1.96630000       1.23270000
C       -0.83050000       3.26690000       1.66830000
C       -1.61350000       3.15770000       2.83550000
N       -1.93380000       1.89290000       3.10420000
N       -1.36800000       1.18770000       2.11510000
H       -0.42280000       4.15200000       1.20940000
H       -1.95120000       3.94560000       3.49180000
H       -1.44150000       0.18360000       2.10770000
