16
Properties=species:S:1:pos:R:3 gdb_53906=T pbc="F F F"
C        0.52390000       0.21620000      -1.04880000
C       -0.06700000       0.04930000       0.32640000
O        0.45740000       0.41860000       1.34540000
C       -1.41370000      -0.73290000       0.43340000
C       -2.30780000      -0.51360000      -0.69860000
N       -3.01690000      -0.32600000      -1.59180000
C       -1.06240000      -2.21210000       0.63130000
C       -1.82880000      -3.31470000       0.04240000
O       -0.56670000      -2.90640000      -0.50460000
H        1.51950000       0.65310000      -0.97250000
H        0.56290000      -0.75740000      -1.54980000
H       -0.12120000       0.85760000      -1.65890000
H       -1.89880000      -0.37590000       1.34790000
H       -0.50590000      -2.37990000       1.55300000
H       -1.82710000      -4.28450000       0.53580000
H       -2.69320000      -3.09570000      -0.57970000
