19
Properties=species:S:1:pos:R:3 gdb_90823=T pbc="F F F"
C       -0.31720000       1.46210000      -0.01260000
N        0.06180000       0.06530000      -0.02810000
C        0.73210000      -0.40430000      -1.25950000
C        1.78070000      -1.39680000      -0.73950000
C        2.95020000      -0.73100000      -0.01020000
C        2.34380000      -0.06670000       1.18300000
C        0.84090000      -0.41760000       1.09380000
C        1.36440000      -1.80670000       0.69810000
N        2.77510000      -1.50770000       1.26060000
H        0.54030000       2.15450000      -0.11150000
H       -1.00890000       1.67110000      -0.83560000
H       -0.83520000       1.69520000       0.92370000
H        0.00510000      -0.85980000      -1.94450000
H        1.22380000       0.41970000      -1.80190000
H        2.06410000      -2.20100000      -1.41740000
H        3.93160000      -0.47560000      -0.39320000
H        2.85220000       0.70040000       1.75510000
H        0.30440000      -0.33690000       2.04080000
H        0.85450000      -2.73490000       0.94180000
