21
Properties=species:S:1:pos:R:3 gdb_114997=T pbc="F F F"
C       -0.05380000       1.38300000      -0.02850000
O       -0.06760000      -0.03380000      -0.06510000
C        0.60220000      -0.57970000      -1.14830000
C        0.66360000      -2.09310000      -0.97960000
C        1.08830000      -2.72990000      -2.27630000
C        1.06880000      -2.06090000      -3.42650000
C        0.56370000      -0.64280000      -3.52560000
C       -0.42710000      -0.45530000      -4.67220000
O       -0.10320000      -0.24460000      -2.33350000
H        0.97660000       1.76960000      -0.01060000
H       -0.57720000       1.81260000      -0.88920000
H       -0.56030000       1.68030000       0.89210000
H        1.62730000      -0.16080000      -1.22130000
H        1.36260000      -2.34570000      -0.17390000
H       -0.32550000      -2.44700000      -0.66270000
H        1.43460000      -3.75930000      -2.24410000
H        1.41390000      -2.51840000      -4.35010000
H        1.42670000       0.02910000      -3.69850000
H       -1.28640000      -1.11890000      -4.54170000
H       -0.78400000       0.57780000      -4.69400000
H        0.04900000      -0.68070000      -5.63120000
