20
Properties=species:S:1:pos:R:3 gdb_17895=T pbc="F F F"
O        0.18570000       1.34070000      -0.15510000
C        0.04480000      -0.05840000      -0.01320000
C        0.20190000      -0.61520000       1.43120000
C       -1.33750000      -0.41010000       1.59200000
C       -1.41530000      -0.59310000       0.04340000
C       -1.41200000      -2.08700000      -0.32810000
C       -0.61860000      -2.91210000       0.71450000
C        0.54510000      -2.11380000       1.35140000
H       -0.37000000       1.77630000       0.49920000
H        0.69680000      -0.49030000      -0.77990000
H        0.87760000      -0.06940000       2.09520000
H       -1.89520000      -1.09920000       2.23090000
H       -1.58880000       0.60900000       1.90110000
H       -2.16550000      -0.02780000      -0.51620000
H       -2.43650000      -2.47080000      -0.39390000
H       -0.97420000      -2.19830000      -1.32820000
H       -1.30630000      -3.21400000       1.51100000
H       -0.25120000      -3.84270000       0.27140000
H        1.46530000      -2.23170000       0.76530000
H        0.75940000      -2.51450000       2.34870000
