17
Properties=species:S:1:pos:R:3 gdb_77165=T pbc="F F F"
C       -0.45300000       1.25940000       0.16760000
C        0.04980000      -0.17120000       0.02920000
C        0.96420000      -0.54900000      -1.16460000
O        2.04220000      -0.89410000      -0.23410000
C        1.27760000      -0.55120000       0.85910000
O        1.60280000      -0.56470000       2.00080000
C        0.53950000      -1.71420000      -2.01520000
C        1.34540000      -2.93580000      -2.12740000
O        0.16750000      -2.89630000      -1.31340000
H        0.35130000       1.98400000       0.00600000
H       -1.24980000       1.46570000      -0.55330000
H       -0.85420000       1.42180000       1.17180000
H       -0.75490000      -0.89740000       0.17220000
H        1.26970000       0.29700000      -1.78870000
H       -0.12320000      -1.44400000      -2.83960000
H        1.27080000      -3.54600000      -3.02570000
H        2.28060000      -2.99870000      -1.57790000
