22
Properties=species:S:1:pos:R:3 gdb_58677=T pbc="F F F"
C       -3.34550000      -0.96800000       1.04810000
C       -1.95420000      -1.31080000       0.49170000
C       -1.66850000      -0.58340000      -0.83200000
C       -0.87530000      -1.05570000       1.53920000
N       -0.67100000      -2.10000000       2.56220000
C        0.40890000      -1.85690000       1.61610000
C        0.77700000      -2.95590000       0.64960000
C       -0.71400000       0.34200000       2.04490000
O       -0.18090000       0.61110000       3.09860000
H       -3.44750000       0.10470000       1.25040000
H       -4.12810000      -1.24110000       0.33300000
H       -3.53100000      -1.50880000       1.98060000
H       -1.94270000      -2.38690000       0.29440000
H       -1.70590000       0.50560000      -0.72020000
H       -0.68230000      -0.84470000      -1.22800000
H       -2.41620000      -0.85500000      -1.58390000
H       -0.45750000      -1.62710000       3.44150000
H        1.25630000      -1.28760000       1.99610000
H       -0.09700000      -3.52380000       0.32610000
H        1.28350000      -2.55060000      -0.23250000
H        1.46410000      -3.65610000       1.13710000
H       -1.11260000       1.14660000       1.39420000
