19
Properties=species:S:1:pos:R:3 gdb_77448=T pbc="F F F"
C        0.00630000       1.60030000      -0.07780000
C        0.10370000       0.09050000      -0.08450000
C        0.70700000      -0.76380000      -1.17910000
C        0.01960000      -1.86860000      -1.91710000
N        1.93490000      -0.14860000      -1.72600000
C        2.54540000      -0.10040000      -0.43430000
N        3.69130000       0.20620000      -0.00140000
C        1.35150000      -0.71100000       0.22980000
O        1.36110000      -1.58480000       1.28840000
H        0.88050000       2.06850000      -0.53950000
H       -0.88350000       1.93730000      -0.62070000
H       -0.06280000       1.97810000       0.94710000
H       -0.75480000      -0.40840000       0.36600000
H       -0.57220000      -1.48720000      -2.75800000
H        0.75020000      -2.57940000      -2.31570000
H       -0.66110000      -2.40460000      -1.24860000
H        1.86340000       0.71630000      -2.25570000
H        4.29070000       0.55520000      -0.75230000
H        2.18430000      -2.08600000       1.24890000
