17
Properties=species:S:1:pos:R:3 gdb_79381=T pbc="F F F"
O        0.01090000       1.46860000      -0.07290000
C        0.06450000       0.06360000      -0.01310000
C        0.02140000      -0.61510000       1.37210000
C       -1.50960000      -0.31470000       1.54600000
C       -1.83810000      -1.78450000       1.86080000
C       -0.73500000      -1.87030000       0.77730000
C       -0.14030000      -3.03100000       0.18620000
C        0.35090000      -4.01620000      -0.30080000
C       -1.31000000      -0.60760000       0.01680000
H        0.90440000       1.81050000       0.02920000
H        0.78780000      -0.35230000      -0.72800000
H        0.77320000      -0.65410000       2.16230000
H       -1.93730000       0.59090000       1.96860000
H       -1.56720000      -2.15460000       2.85440000
H       -2.82870000      -2.14690000       1.56920000
H        0.78320000      -4.88520000      -0.73120000
H       -2.08440000      -0.63250000      -0.75040000
