21
Properties=species:S:1:pos:R:3 gdb_84686=T pbc="F F F"
C       -0.69120000       1.33030000       0.00150000
C        0.00090000      -0.03770000      -0.08240000
C        1.04170000      -0.14370000      -1.17950000
C        2.18060000      -0.71160000      -0.78210000
C        2.13870000      -1.07100000       0.67760000
O        2.90150000      -0.17280000       1.52430000
C        1.70740000       0.56270000       1.86440000
C        0.78730000      -0.48660000       1.17870000
C       -0.02160000      -1.33430000       2.14840000
H        0.02810000       2.14570000       0.12250000
H       -1.26270000       1.52830000      -0.91120000
H       -1.39140000       1.36690000       0.84290000
H       -0.78990000      -0.78040000      -0.27210000
H        0.84030000       0.20710000      -2.18770000
H        3.04980000      -0.89080000      -1.40500000
H        2.38990000      -2.11630000       0.89530000
H        1.58820000       0.66110000       2.95000000
H        1.70460000       1.56260000       1.41480000
H       -0.86550000      -0.76760000       2.55990000
H       -0.42880000      -2.22170000       1.65090000
H        0.59350000      -1.67210000       2.98910000
