17
Properties=species:S:1:pos:R:3 gdb_30902=T pbc="F F F"
N       -0.44450000       0.83730000      -0.79180000
C       -0.05200000      -0.36570000      -0.31820000
C       -0.99380000      -1.33250000       0.28890000
C       -2.30770000      -1.21600000       0.47590000
N       -3.26580000       1.52820000      -1.77860000
H       -3.89340000       2.01100000      -1.14120000
H       -3.15430000       2.13710000      -2.58500000
H       -3.76640000       0.70720000      -2.10810000
O       -0.28960000      -2.43530000       0.67600000
C        1.08070000      -2.22490000       0.37810000
O        1.88880000      -3.06900000       0.64150000
C        1.18890000      -0.91920000      -0.24050000
H        0.24070000       1.38690000      -1.28350000
H       -1.41750000       1.01880000      -1.04040000
H       -2.87420000      -2.00870000       0.94660000
H       -2.82630000      -0.31720000       0.17320000
H        2.12860000      -0.51090000      -0.57770000
