17
Properties=species:S:1:pos:R:3 gdb_74028=T pbc="F F F"
C       -0.09900000       1.48750000      -0.03630000
C       -0.05790000       0.00840000       0.14210000
C       -1.02040000      -0.92230000       0.16890000
N       -2.27160000      -1.21880000      -0.47790000
C       -1.66680000      -2.54300000      -0.87800000
C       -0.49020000      -2.31050000       0.15950000
N        0.90790000      -2.11920000      -0.08270000
C        1.23550000      -0.75970000       0.12280000
O        2.36240000      -0.32020000       0.16940000
H        0.69920000       1.81050000      -0.71090000
H       -1.06410000       1.81040000      -0.43690000
H        0.06410000       2.00800000       0.91510000
H       -3.07680000      -1.30570000       0.13460000
H       -2.29560000      -3.42010000      -0.70540000
H       -1.33950000      -2.50120000      -1.91870000
H       -0.69440000      -2.89200000       1.06710000
H        1.60530000      -2.80670000       0.16010000
