16
Properties=species:S:1:pos:R:3 gdb_2304=T pbc="F F F"
C        0.11100000       1.52770000       0.03780000
C        0.06310000       0.07280000       0.03870000
C        0.02830000      -1.13220000       0.05000000
C        0.00660000      -2.56930000       0.00920000
C       -0.44760000      -3.35620000       1.20510000
N       -1.25590000      -3.33660000      -0.00010000
C       -2.50840000      -2.59460000       0.05700000
H        1.14600000       1.88730000       0.03170000
H       -0.38920000       1.94530000      -0.84320000
H       -0.37780000       1.94350000       0.92590000
H        0.77050000      -3.01420000      -0.62530000
H        0.03460000      -4.30020000       1.44630000
H       -0.78690000      -2.77660000       2.06220000
H       -2.46230000      -1.69020000       0.68140000
H       -2.79620000      -2.29670000      -0.95580000
H       -3.28360000      -3.25730000       0.45420000
