14
Properties=species:S:1:pos:R:3 gdb_3064=T pbc="F F F"
O        0.15380000       1.09550000      -0.74630000
C       -0.02120000       0.11800000       0.27050000
C       -1.33560000      -0.52130000       0.25250000
C       -2.44310000      -0.99950000       0.22450000
C       -3.74480000      -1.60230000       0.20570000
C       -4.44910000      -1.80260000      -1.09850000
N       -3.92810000      -2.95970000      -0.36870000
H       -0.58730000       1.70750000      -0.68680000
H        0.76330000      -0.62830000       0.10160000
H        0.15850000       0.54250000       1.27140000
H       -4.35370000      -1.43140000       1.08980000
H       -5.53230000      -1.72630000      -1.12740000
H       -3.93710000      -1.46900000      -1.99610000
H       -3.04860000      -3.25780000      -0.78430000
