17
Properties=species:S:1:pos:R:3 gdb_98861=T pbc="F F F"
O       -0.13820000       1.45910000       0.55300000
C       -0.17910000       0.07020000       0.66140000
C       -0.83260000      -0.58160000      -0.53650000
O       -1.21190000       0.10870000      -1.46720000
C       -1.07130000      -2.08430000      -0.47850000
O       -2.37490000      -2.28310000       0.12380000
C       -2.96770000      -2.62350000      -1.15900000
C       -1.56260000      -2.75090000      -1.79980000
O       -1.28540000      -2.17600000      -3.03170000
H       -0.52720000       1.66690000      -0.31030000
H        0.83380000      -0.36070000       0.75690000
H       -0.73250000      -0.25170000       1.55930000
H       -0.28170000      -2.58960000       0.09010000
H       -3.58690000      -3.52270000      -1.08930000
H       -3.55700000      -1.79420000      -1.56910000
H       -1.23690000      -3.79270000      -1.84910000
H       -1.42200000      -1.22190000      -2.93500000
