17
Properties=species:S:1:pos:R:3 gdb_6259=T pbc="F F F"
C       -0.02490000       1.51140000      -0.02050000
C        0.04660000      -0.01400000       0.12610000
C        0.70550000      -0.41450000       1.45370000
C       -1.35580000      -0.62430000      -0.01360000
C       -1.37590000      -2.11950000      -0.22830000
O       -0.41260000      -2.82590000      -0.38600000
C       -2.73590000      -2.71240000      -0.26180000
N       -3.80170000      -3.16040000      -0.28440000
H        0.97330000       1.95360000       0.05430000
H       -0.45060000       1.80510000      -0.98580000
H       -0.64370000       1.95680000       0.76760000
H        0.65850000      -0.41440000      -0.69100000
H        0.79580000      -1.49950000       1.54520000
H        1.71000000       0.01290000       1.52840000
H        0.12390000      -0.04300000       2.30620000
H       -1.98360000      -0.39970000       0.86090000
H       -1.89760000      -0.18670000      -0.86590000
