11
Properties=species:S:1:pos:R:3 gdb_132182=T pbc="F F F"
O       -0.10940000       1.29160000       0.01020000
C        0.03710000      -0.02690000       0.00220000
N        1.18130000      -0.59790000      -0.00720000
C        1.26130000      -1.99970000      -0.01510000
O        2.30680000      -2.60280000      -0.02410000
C       -0.05600000      -2.67240000      -0.01140000
F       -0.07650000      -3.99460000      -0.01830000
C       -1.19270000      -1.97060000      -0.00130000
O       -1.17620000      -0.60120000       0.00590000
H        0.78420000       1.66400000       0.00730000
H       -2.19350000      -2.37700000       0.00210000
