15
Properties=species:S:1:pos:R:3 gdb_11879=T pbc="F F F"
O       -0.18190000       0.04010000       0.55460000
C       -0.13360000       1.20860000       0.30860000
C       -1.20270000       2.08260000      -0.34700000
C       -0.72160000       3.49100000      -0.06800000
C       -1.34540000       4.72070000      -0.59720000
N       -1.43550000       4.39660000       0.84130000
C        0.77470000       3.33370000       0.16710000
O        0.95930000       1.97070000       0.58620000
H       -1.21750000       1.85220000      -1.41900000
H       -2.18940000       1.84510000       0.05600000
H       -0.73380000       5.58860000      -0.83130000
H       -2.23210000       4.61540000      -1.21740000
H       -2.35840000       4.02700000       1.05880000
H        1.36010000       3.49880000      -0.74530000
H        1.13310000       3.99490000       0.95800000
