20
Properties=species:S:1:pos:R:3 gdb_7157=T pbc="F F F"
C        0.06710000       1.40240000      -0.01840000
O        0.02760000      -0.00360000       0.00850000
C        0.71070000      -0.55230000       1.11370000
C        0.62650000      -2.08470000       1.02280000
C        1.29890000      -2.61140000      -0.25980000
C        1.19940000      -2.68710000       2.22560000
C        1.69240000      -3.16980000       3.21280000
C        2.27850000      -3.76350000       4.40660000
H        1.09930000       1.78150000      -0.08510000
H       -0.48680000       1.72940000      -0.90190000
H       -0.40050000       1.84180000       0.87710000
H        1.76770000      -0.23620000       1.11690000
H        0.26110000      -0.20770000       2.05860000
H       -0.44240000      -2.33480000       0.97610000
H        2.37200000      -2.39520000      -0.24580000
H        1.17310000      -3.69370000      -0.34530000
H        0.85670000      -2.12990000      -1.13450000
H        3.05440000      -4.49330000       4.14950000
H        2.74070000      -3.00210000       5.04480000
H        1.52270000      -4.28240000       5.00690000
