17
Properties=species:S:1:pos:R:3 gdb_88274=T pbc="F F F"
N       -0.13170000       1.24690000      -0.39580000
C        0.07320000      -0.05720000      -0.05570000
N        1.24120000      -0.52950000       0.17480000
C       -1.23710000      -0.83690000       0.02840000
O       -2.28890000      -0.21030000       0.13730000
C       -1.20940000      -2.29850000      -0.04650000
C       -2.27210000      -3.08460000       0.73970000
C       -2.45870000      -2.95990000      -0.72120000
O       -3.44600000      -2.19420000      -1.29040000
H        0.63460000       1.88320000      -0.24890000
H       -1.07050000       1.59490000      -0.28300000
H        1.19980000      -1.52140000       0.39380000
H       -0.25520000      -2.77740000      -0.21980000
H       -1.95260000      -4.03090000       1.16170000
H       -2.91410000      -2.48170000       1.37370000
H       -2.22050000      -3.81390000      -1.34660000
H       -3.48760000      -1.35810000      -0.79410000
