15
Properties=species:S:1:pos:R:3 gdb_10847=T pbc="F F F"
O        0.02070000       1.39030000      -0.14220000
C        0.03160000      -0.01770000      -0.01320000
C        0.67830000      -0.46800000       1.29180000
O        0.53370000      -1.87510000       1.46880000
C       -0.66380000      -2.45950000       1.23860000
N       -0.90120000      -3.58170000       1.76290000
O       -1.52180000      -1.85740000       0.36700000
C       -1.41840000      -0.46830000       0.04420000
H        0.91230000       1.68690000      -0.34970000
H        0.53530000      -0.50590000      -0.86000000
H        1.75530000      -0.28000000       1.30620000
H        0.22050000       0.07660000       2.12910000
H       -1.80980000      -3.91640000       1.44870000
H       -1.94760000       0.13200000       0.79620000
H       -1.92150000      -0.34140000      -0.91640000
