16
Properties=species:S:1:pos:R:3 gdb_48720=T pbc="F F F"
O       -0.38800000       0.53660000       0.70130000
C        0.30080000       0.90610000      -0.21810000
C        1.37680000       1.92430000      -0.10010000
C        1.78000000       2.43260000       1.28180000
C        2.19700000       3.88120000       1.08670000
O        3.30850000       4.06810000       0.19290000
C        1.98420000       4.26870000      -0.31800000
C        1.46140000       3.07110000      -1.09220000
N        2.34260000       1.92500000      -1.21690000
H        0.17600000       0.51500000      -1.25100000
H        0.90850000       2.36920000       1.94120000
H        2.57660000       1.83360000       1.73580000
H        2.16030000       4.58370000       1.91550000
H        1.74850000       5.27570000      -0.64700000
H        0.74140000       3.22730000      -1.88870000
H        3.26540000       2.18400000      -0.86780000
