16
Properties=species:S:1:pos:R:3 gdb_51852=T pbc="F F F"
O       -0.21430000       0.20150000      -0.70930000
C       -0.09290000       1.25270000      -0.12120000
N        1.09220000       1.77900000       0.30410000
C        2.35410000       1.08400000       0.13170000
C        3.42970000       1.92730000      -0.55710000
O        4.05830000       2.66750000       0.49610000
C        4.21350000       1.77900000       1.58620000
C        3.01900000       0.82230000       1.51180000
O        2.65740000       0.04690000       2.35090000
H       -0.94480000       1.91390000       0.12760000
H        1.08470000       2.66170000       0.79140000
H        2.12270000       0.14460000      -0.37270000
H        4.16280000       1.27790000      -1.06050000
H        3.02930000       2.64090000      -1.27880000
H        5.14700000       1.19440000       1.51690000
H        4.22880000       2.34220000       2.52290000
