11
Properties=species:S:1:pos:R:3 gdb_130545=T pbc="F F F"
O        0.00430000      -0.05780000       0.00310000
C       -0.03760000       1.15040000       0.00740000
C        1.13980000       1.98790000       0.00170000
C        2.13670000       2.66110000      -0.00330000
C       -1.34950000       1.87020000       0.01890000
N       -2.54140000       1.34940000       0.02580000
C       -3.32980000       2.46700000       0.03490000
N       -2.68230000       3.60570000       0.03390000
O       -1.35120000       3.21170000       0.02310000
H        3.01790000       3.25670000      -0.00780000
H       -4.40950000       2.43700000       0.04250000
