18
Properties=species:S:1:pos:R:3 gdb_54538=T pbc="F F F"
O        0.18730000       0.09950000       0.31620000
C        0.10710000       1.26190000      -0.10580000
O        0.93040000       2.06480000      -0.57700000
C       -1.32990000       1.88880000       0.05040000
C       -1.69970000       3.10850000      -0.75700000
C       -1.38060000       3.24840000       0.69610000
N       -2.55170000       3.25480000       1.63760000
H       -2.19450000       3.13660000       2.58680000
H       -3.08670000       4.12540000       1.62140000
C       -3.43030000       2.05330000       1.26890000
C       -2.45630000       1.05540000       0.63220000
H       -0.90010000       3.44730000      -1.40780000
H       -2.71460000       3.27550000      -1.10960000
H       -0.51100000       3.76870000       1.07600000
H       -3.94260000       1.71740000       2.17270000
H       -4.17270000       2.42740000       0.56300000
H       -2.97610000       0.45330000      -0.11770000
H       -2.01210000       0.36690000       1.35550000
