19
Properties=species:S:1:pos:R:3 gdb_53951=T pbc="F F F"
C       -0.03820000       1.38980000      -0.45500000
C        0.00700000      -0.03290000       0.05320000
O        1.03060000      -0.57280000       0.40760000
C       -1.33580000      -0.80980000       0.13840000
C       -1.66890000      -1.00450000       1.62260000
O       -2.40020000      -0.10130000      -0.46680000
C       -1.14600000      -2.15700000      -0.55840000
C       -2.29390000      -2.93580000      -1.02630000
O       -1.51160000      -2.15310000      -1.94690000
H        0.94360000       1.84930000      -0.33660000
H       -0.32300000       1.39660000      -1.51320000
H       -0.80660000       1.96510000       0.06890000
H       -1.81840000      -0.03430000       2.10560000
H       -2.59080000      -1.58270000       1.72260000
H       -0.85240000      -1.52420000       2.12860000
H       -2.37850000      -0.34520000      -1.40470000
H       -0.20720000      -2.65630000      -0.33320000
H       -2.20100000      -4.01270000      -1.14790000
H       -3.29940000      -2.56130000      -0.84980000
