19
Properties=species:S:1:pos:R:3 gdb_104097=T pbc="F F F"
C       -0.36210000       1.73690000       0.04050000
C        0.02060000       0.26920000      -0.08440000
C       -1.22190000      -0.64140000      -0.09510000
O       -1.93030000      -0.55500000       1.12040000
C        0.96050000      -0.05160000      -1.25140000
C        1.90120000      -1.11520000      -0.68790000
O        2.65400000      -1.82500000      -1.29730000
C        1.69870000      -1.11070000       0.82940000
O        0.78570000      -0.06750000       1.11240000
H        0.53010000       2.35120000       0.18670000
H       -0.87640000       2.07240000      -0.86540000
H       -1.03520000       1.87800000       0.88890000
H       -1.90420000      -0.33720000      -0.89660000
H       -0.91270000      -1.68000000      -0.30750000
H       -1.25850000      -0.59710000       1.81380000
H        0.45780000      -0.41360000      -2.15150000
H        1.55890000       0.82320000      -1.53160000
H        1.32870000      -2.09730000       1.14750000
H        2.64360000      -0.92310000       1.35050000
