16
Properties=species:S:1:pos:R:3 gdb_83506=T pbc="F F F"
O        0.10820000       1.36280000      -0.09550000
C       -0.00100000      -0.02890000      -0.02700000
C        0.30070000      -0.63230000       1.35320000
O       -0.67600000      -0.03110000       2.17850000
C       -1.89880000      -0.04050000       1.38940000
C       -1.44070000      -0.62850000       0.03330000
C       -1.08580000      -2.06700000       0.31530000
N       -1.64670000      -3.11210000      -0.10330000
O        0.00720000      -2.02160000       1.17020000
H       -0.10570000       1.71560000       0.77730000
H        0.60090000      -0.45960000      -0.82900000
H        1.28320000      -0.52220000       1.80560000
H       -2.65180000      -0.65220000       1.89180000
H       -2.27180000       0.98350000       1.28790000
H       -2.11080000      -0.47230000      -0.80670000
H       -1.18540000      -3.94470000       0.26880000
