20
Properties=species:S:1:pos:R:3 gdb_22216=T pbc="F F F"
C        0.72160000      -0.07920000       1.37130000
C        0.11330000       0.04570000      -0.04050000
C        1.08650000      -0.46150000      -1.11670000
C       -1.22950000      -0.65870000      -0.08440000
C       -1.29810000      -2.16220000      -0.25320000
C       -1.29700000      -2.58600000      -1.71640000
O       -0.55390000      -3.40190000      -2.19370000
N       -2.37100000      -0.08970000       0.02750000
O       -2.27990000       1.30160000       0.17570000
H        1.66950000       0.46610000       1.42180000
H        0.04820000       0.33470000       2.12670000
H        0.92650000      -1.12380000       1.63030000
H       -0.08140000       1.10450000      -0.22490000
H        1.33380000      -1.51960000      -0.98830000
H        0.67730000      -0.33450000      -2.12380000
H        2.02120000       0.10570000      -1.06470000
H       -0.47930000      -2.67340000       0.25890000
H       -2.25140000      -2.50400000       0.16680000
H       -2.07490000      -2.07520000      -2.32740000
H       -3.20660000       1.55690000       0.23400000
