19
Properties=species:S:1:pos:R:3 gdb_52904=T pbc="F F F"
C       -0.22440000       1.53340000      -0.04880000
C       -0.13060000       0.08030000      -0.04240000
C       -0.05880000      -1.12310000      -0.03100000
C        0.04480000      -2.56030000      -0.04100000
C        1.22520000      -3.12630000      -0.83220000
C        2.56230000      -2.75830000      -0.21970000
O        3.46060000      -3.53870000      -0.03280000
C       -0.39460000      -3.32170000       1.20400000
C       -1.24640000      -3.36620000      -0.03140000
H        0.48580000       1.97170000      -0.75860000
H       -1.22710000       1.86740000      -0.33810000
H       -0.00610000       1.95420000       0.93910000
H        1.16880000      -4.21620000      -0.90060000
H        1.20060000      -2.72000000      -1.85320000
H        2.66350000      -1.68480000       0.05350000
H        0.17780000      -4.20470000       1.46750000
H       -0.74360000      -2.73910000       2.04780000
H       -2.17500000      -2.80820000      -0.03320000
H       -1.26410000      -4.27960000      -0.61600000
