18
Properties=species:S:1:pos:R:3 gdb_41244=T pbc="F F F"
C        0.00780000       1.52720000      -0.22740000
C        1.55660000       1.52800000       0.08960000
C        1.26090000       0.26770000       0.89720000
O        1.87490000      -1.03080000       1.09480000
C        0.75430000      -1.25030000       1.96570000
C       -0.68470000      -0.77430000       1.26930000
N       -0.79220000       0.17320000       2.40480000
C        0.66790000       0.20790000       2.39290000
C       -0.01500000      -0.00240000       0.12230000
H       -0.55150000       2.15690000       0.46930000
H       -0.28110000       1.79110000      -1.24530000
H        2.14480000       1.32690000      -0.81000000
H        1.98210000       2.38620000       0.61580000
H        0.80290000      -2.13580000       2.59370000
H       -1.52220000      -1.44900000       1.09780000
H       -1.26190000       1.04740000       2.17510000
H        1.22770000       0.66970000       3.20580000
H        0.17450000      -0.61370000      -0.76210000
