21
Properties=species:S:1:pos:R:3 gdb_121403=T pbc="F F F"
C        0.01200000       1.50110000      -0.07410000
C        0.04480000      -0.01370000       0.01770000
O        0.71620000      -0.51340000      -1.13770000
C        0.76890000      -1.88950000      -1.22430000
C        1.34360000      -2.26600000      -2.58820000
O        1.51430000      -3.67040000      -2.68450000
C        2.34860000      -4.16470000      -1.64840000
C        1.77200000      -3.79770000      -0.28590000
O        1.61090000      -2.39010000      -0.19050000
H        1.02770000       1.90530000      -0.10520000
H       -0.51310000       1.82310000      -0.97790000
H       -0.50170000       1.92160000       0.79560000
H        0.56900000      -0.34320000       0.92240000
H       -0.97610000      -0.42660000       0.05380000
H       -0.23660000      -2.34150000      -1.10240000
H        0.66030000      -1.97020000      -3.38780000
H        2.29990000      -1.73540000      -2.71580000
H        2.40020000      -5.25030000      -1.77580000
H        3.36430000      -3.74710000      -1.74200000
H        0.80420000      -4.30690000      -0.14660000
H        2.44390000      -4.09630000       0.52440000
