22
Properties=species:S:1:pos:R:3 gdb_53529=T pbc="F F F"
C        0.14470000       1.36900000       0.39840000
C        0.06780000      -0.05300000       0.09350000
C        0.01320000      -1.22900000      -0.16070000
C       -0.06860000      -2.65740000      -0.46060000
C       -1.43730000      -3.27320000      -0.14600000
C       -2.57710000      -2.71380000      -0.97340000
C       -1.47060000      -4.70030000       0.29650000
N       -1.80400000      -3.62580000       1.22670000
C       -0.89910000      -3.36990000       2.33660000
H        1.05740000       1.60820000       0.95560000
H        0.14710000       1.97430000      -0.51490000
H       -0.70720000       1.69250000       1.00680000
H        0.13740000      -2.81990000      -1.52730000
H        0.72090000      -3.19270000       0.07730000
H       -2.42220000      -2.91490000      -2.03990000
H       -3.52310000      -3.16410000      -0.66520000
H       -2.65230000      -1.62970000      -0.84170000
H       -2.28770000      -5.35610000       0.00380000
H       -0.51230000      -5.20500000       0.42540000
H        0.15480000      -3.62400000       2.14170000
H       -0.94870000      -2.31150000       2.60800000
H       -1.22820000      -3.96200000       3.19680000
