17
Properties=species:S:1:pos:R:3 gdb_49643=T pbc="F F F"
O        0.08480000       0.05790000      -0.35070000
C        0.10260000       1.25140000      -0.13420000
N        1.20530000       1.94760000       0.24670000
C        2.61090000       1.51890000       0.21870000
C        3.22130000       1.67460000      -1.19310000
N        3.32680000       3.17200000      -1.04000000
C        1.97920000       3.81810000      -1.22270000
C        1.51710000       3.38410000       0.19000000
C        3.00850000       3.00790000       0.44380000
H       -0.79840000       1.89810000      -0.18300000
H        2.85440000       0.66150000       0.84560000
H        4.22770000       1.24950000      -1.25760000
H        2.62550000       1.32480000      -2.04040000
H        2.10760000       4.90320000      -1.29640000
H        1.39920000       3.46380000      -2.08040000
H        0.88770000       4.03660000       0.79810000
H        3.67080000       3.41220000       1.20530000
