14
Properties=species:S:1:pos:R:3 gdb_35378=T pbc="F F F"
N        0.01420000      -1.15220000      -0.08280000
C        0.00900000      -0.00010000      -0.00980000
C       -0.00450000       1.46580000       0.01170000
O       -0.61060000       1.93310000       1.22270000
C        0.16780000       3.01690000       1.68420000
C        1.64460000       2.77480000       1.92940000
O        2.04610000       1.58650000       1.24650000
C        1.40340000       2.08310000       0.04090000
C        1.17550000       3.47450000       0.67120000
H       -0.57250000       1.82460000      -0.86080000
H       -0.38560000       3.71230000       2.30230000
H        2.22330000       3.09770000       2.78630000
H        2.00970000       1.95320000      -0.85470000
H        1.32300000       4.45400000       0.23920000
