16
Properties=species:S:1:pos:R:3 gdb_51847=T pbc="F F F"
O        0.21220000      -0.12030000       0.24810000
C        0.14410000       1.01820000      -0.12900000
C        1.29860000       2.01290000      -0.05520000
N        1.32420000       2.93400000      -1.16160000
C        1.60890000       2.56720000      -2.53370000
C        1.56920000       3.95480000      -3.20950000
O        0.90020000       4.81450000      -2.27800000
C        0.84150000       4.21870000      -1.05240000
O        0.42860000       4.75940000      -0.06250000
H       -0.79280000       1.44620000      -0.55520000
H        1.15450000       2.61720000       0.84980000
H        2.24060000       1.46190000       0.03780000
H        2.58830000       2.08710000      -2.63270000
H        0.85390000       1.88220000      -2.94380000
H        2.57540000       4.34730000      -3.38880000
H        1.01270000       3.95900000      -4.14810000
