21
Properties=species:S:1:pos:R:3 gdb_118141=T pbc="F F F"
O        0.25210000       0.68470000      -0.94670000
C        0.07440000      -0.25410000       0.10680000
C       -1.13140000      -1.11730000      -0.24340000
C       -1.46240000      -2.12790000       0.85690000
O       -1.76450000      -1.46070000       2.08870000
C       -2.57990000      -3.11910000       0.54330000
C       -3.64710000      -2.89430000      -0.51690000
C       -2.63800000      -4.00580000      -0.66620000
O       -1.60820000      -3.90240000      -1.60890000
H        0.98820000       1.25710000      -0.71280000
H        0.96490000      -0.89380000       0.22310000
H       -0.09770000       0.24680000       1.06940000
H       -1.99270000      -0.45570000      -0.40780000
H       -0.94240000      -1.64470000      -1.18140000
H       -0.55880000      -2.70640000       1.08890000
H       -2.57180000      -0.95380000       1.94390000
H       -2.92290000      -3.59500000       1.45790000
H       -4.67890000      -3.14160000      -0.29110000
H       -3.51840000      -2.04350000      -1.17720000
H       -2.98700000      -5.02550000      -0.50300000
H       -1.99440000      -4.00740000      -2.48460000
