21
Properties=species:S:1:pos:R:3 gdb_40192=T pbc="F F F"
C        0.11320000       1.50470000      -0.08440000
C        1.28050000       0.57000000       0.12170000
C       -0.12200000       0.02400000      -0.02750000
C       -0.82240000      -0.67430000       1.13270000
C       -0.70960000      -2.17200000       0.76640000
C       -0.82150000      -2.21240000      -0.76770000
C       -2.21280000      -1.91470000      -1.36200000
O       -1.83780000      -0.56510000      -1.70570000
C       -0.47260000      -0.77700000      -1.25850000
H       -0.21870000       2.10080000       0.75930000
H        0.01420000       2.00170000      -1.04360000
H        1.97820000       0.43360000      -0.69870000
H        1.73690000       0.52900000       1.10540000
H       -0.38110000      -0.43840000       2.10530000
H       -1.87490000      -0.36890000       1.16730000
H        0.27240000      -2.55310000       1.06810000
H       -1.46520000      -2.79190000       1.25970000
H       -0.29100000      -3.05020000      -1.22100000
H       -2.47500000      -2.50290000      -2.25110000
H       -3.05560000      -1.94380000      -0.65850000
H        0.23630000      -0.65290000      -2.08520000
