15
Properties=species:S:1:pos:R:3 gdb_5431=T pbc="F F F"
C       -0.00210000       1.50260000       0.07700000
C        0.01390000       0.01520000      -0.02030000
C       -0.00060000      -0.81190000      -1.13760000
C        0.02810000      -2.16700000      -0.66750000
C        0.05810000      -2.12490000       0.69980000
N        0.04910000      -0.80060000       1.07820000
C       -0.03680000      -0.37750000      -2.48250000
C       -0.06740000      -0.01130000      -3.63100000
H        0.89510000       1.89400000       0.57270000
H       -0.04220000       1.92750000      -0.92790000
H       -0.87270000       1.87060000       0.63390000
H        0.02580000      -3.05040000      -1.28560000
H        0.08470000      -2.91250000       1.43490000
H        0.06610000      -0.47300000       2.02850000
H       -0.09390000       0.30820000      -4.64250000
