17
Properties=species:S:1:pos:R:3 gdb_94128=T pbc="F F F"
C        0.34500000       1.63420000      -0.25100000
C       -0.06450000       0.20790000       0.07660000
C        0.50110000      -0.87800000      -0.87560000
N        1.58200000      -1.14340000       0.10210000
C        0.81660000      -0.49720000       1.19810000
C        1.59670000       0.33220000       2.10790000
C        2.23260000       1.03060000       2.84960000
C       -0.00270000      -1.45330000       1.96970000
N       -0.64300000      -2.23780000       2.52810000
H        1.41800000       1.70060000      -0.45060000
H       -0.19300000       1.97650000      -1.14110000
H        0.10900000       2.31400000       0.57240000
H       -1.13430000       0.14080000       0.27590000
H       -0.19530000      -1.71200000      -1.02680000
H        0.86590000      -0.53300000      -1.84780000
H        1.83360000      -2.11280000       0.26470000
H        2.80090000       1.64070000       3.50820000
