18
Properties=species:S:1:pos:R:3 gdb_97852=T pbc="F F F"
C        0.36850000       1.29350000      -0.47090000
C       -0.37100000       0.23510000       0.36780000
C        0.40490000      -0.23520000       1.51060000
C        1.07370000      -0.61420000       2.43780000
C        1.85270000      -1.07370000       3.58200000
C        0.97910000      -1.40580000       4.83660000
O        1.30570000      -2.78130000       5.13900000
C        2.19400000      -3.16000000       4.19130000
N        2.57450000      -2.34540000       3.30010000
H        1.30670000       0.89140000      -0.86220000
H       -0.25050000       1.61140000      -1.31510000
H        0.60500000       2.17310000       0.13400000
H       -1.32540000       0.64670000       0.72080000
H       -0.63040000      -0.62130000      -0.26770000
H        2.60410000      -0.31360000       3.82850000
H        1.22860000      -0.79430000       5.70670000
H       -0.09130000      -1.33890000       4.63320000
H        2.52830000      -4.18790000       4.28160000
