23
Properties=species:S:1:pos:R:3 gdb_94546=T pbc="F F F"
C        0.72520000       0.13910000      -1.31910000
C       -0.03410000       0.05420000      -0.00270000
C        0.79550000      -0.16810000       1.23700000
C        0.16640000       1.18360000       0.99190000
C       -1.38780000      -0.62860000      -0.13710000
C       -2.29800000      -0.74440000       1.12450000
C       -3.21820000       0.37670000       0.57310000
C       -2.52160000       0.23970000      -0.80510000
O       -2.18640000       1.41020000      -1.51040000
H        1.68420000       0.65140000      -1.19080000
H        0.93470000      -0.86500000      -1.70700000
H        0.14420000       0.67560000      -2.07410000
H        0.38910000      -0.77710000       2.03690000
H        1.86940000      -0.26080000       1.11330000
H        0.81540000       2.00590000       0.70780000
H       -0.65460000       1.47550000       1.63860000
H       -1.22340000      -1.58430000      -0.64730000
H       -2.79620000      -1.71500000       1.17980000
H       -1.83300000      -0.55440000       2.09450000
H       -4.29800000       0.21270000       0.60600000
H       -3.00770000       1.35120000       1.02560000
H       -3.11490000      -0.35850000      -1.50230000
H       -1.63430000       1.94810000      -0.93220000
