14
Properties=species:S:1:pos:R:3 gdb_132068=T pbc="F F F"
N        0.02650000       1.40020000       0.15140000
C       -0.00010000       0.02710000       0.05630000
C       -1.13020000      -0.73500000       0.02590000
F       -2.31610000      -0.11400000       0.02610000
N       -1.18770000      -2.08600000      -0.00500000
C       -0.05290000      -2.70160000      -0.01570000
N        1.14970000      -2.05230000      -0.00580000
C        1.28360000      -0.65870000       0.01530000
N        2.38210000       0.00860000      -0.00530000
H        0.91860000       1.79260000      -0.11890000
H       -0.78830000       1.88280000      -0.19310000
H       -0.01080000      -3.78550000      -0.03360000
H        1.99830000      -2.59900000      -0.02890000
H        3.20680000      -0.58810000      -0.04610000
