19
Properties=species:S:1:pos:R:3 gdb_39928=T pbc="F F F"
C       -0.10540000       1.48970000       0.04880000
O        1.15260000       0.81630000       0.01100000
C       -0.05170000       0.02110000       0.02770000
C       -0.28340000      -0.85150000       1.21070000
C       -0.56800000      -2.10430000       0.84530000
C       -0.59370000      -2.28690000      -0.64840000
C       -2.00930000      -2.33540000      -1.30730000
C       -1.89420000      -0.82120000      -1.63470000
C       -0.39830000      -0.82900000      -1.18530000
H       -0.33100000       2.01410000       0.97770000
H       -0.37860000       2.02880000      -0.85870000
H       -0.19810000      -0.48280000       2.22630000
H       -0.77150000      -2.91960000       1.53220000
H        0.09920000      -3.06530000      -0.98270000
H       -2.03020000      -2.96370000      -2.20140000
H       -2.83370000      -2.63570000      -0.65580000
H       -2.06820000      -0.54990000      -2.67810000
H       -2.52260000      -0.18380000      -1.00730000
H        0.32050000      -0.69040000      -1.99350000
