16
Properties=species:S:1:pos:R:3 gdb_126183=T pbc="F F F"
C       -0.00030000       1.55910000       0.06680000
C       -0.01820000       0.03010000       0.08330000
C       -1.44210000      -0.53510000      -0.09210000
O       -2.05330000      -0.12670000      -1.29700000
C       -1.43230000      -2.03230000       0.03320000
N       -1.61170000      -2.86130000      -0.95270000
O       -1.47960000      -4.09070000      -0.39710000
N       -1.21690000      -3.94150000       0.95950000
N       -1.18610000      -2.71140000       1.21520000
H        1.02360000       1.93640000       0.13720000
H       -0.44750000       1.93940000      -0.85490000
H       -0.56760000       1.96840000       0.90970000
H        0.61120000      -0.36970000      -0.72300000
H        0.39570000      -0.35250000       1.02350000
H       -2.07590000      -0.14020000       0.71130000
H       -1.64720000      -0.61200000      -2.02500000
