18
Properties=species:S:1:pos:R:3 gdb_71428=T pbc="F F F"
C       -0.12850000       1.44250000      -0.13960000
C        0.10870000      -0.03490000      -0.07990000
C        0.18260000      -1.01230000      -1.24550000
C       -0.14880000      -2.07390000      -0.18190000
C        1.05630000      -2.14720000       0.77460000
C        2.45040000      -2.44860000       0.29090000
O        2.72960000      -2.85350000      -0.81000000
C        0.65390000      -0.71910000       1.13780000
N       -0.77430000      -0.95850000       0.72240000
H        0.76230000       1.96600000      -0.50450000
H       -0.96030000       1.67630000      -0.81200000
H       -0.37390000       1.83780000       0.85080000
H       -0.66920000      -0.85870000      -1.91430000
H        1.10180000      -1.11700000      -1.82450000
H       -0.73300000      -2.96000000      -0.41670000
H        0.83470000      -2.79650000       1.63220000
H        3.24670000      -2.26450000       1.05060000
H        0.88990000      -0.17930000       2.04820000
