18
Properties=species:S:1:pos:R:3 gdb_44546=T pbc="F F F"
O        0.00960000       0.65860000       1.20000000
C       -0.01380000       1.50490000       0.34710000
C       -1.28740000       2.09410000      -0.28770000
C       -0.85400000       3.37440000      -0.99770000
C       -0.80860000       4.66920000      -0.17000000
N       -0.04310000       4.34360000       1.05620000
C        0.67900000       4.68970000      -0.19050000
C        0.73720000       3.39640000      -1.01970000
C        1.22510000       2.12870000      -0.32230000
H       -1.67270000       1.35320000      -0.99960000
H       -2.04920000       2.23530000       0.48190000
H       -1.30570000       3.52010000      -1.97930000
H       -1.52150000       5.48470000      -0.17540000
H       -0.04620000       5.16620000       1.65650000
H        1.36880000       5.52450000      -0.21520000
H        1.15750000       3.55400000      -2.01330000
H        2.00360000       2.29120000       0.42610000
H        1.61090000       1.39840000      -1.04480000
