19
Properties=species:S:1:pos:R:3 gdb_11592=T pbc="F F F"
C        0.21880000       1.44080000      -0.13940000
C       -0.19060000      -0.02220000      -0.04400000
O       -1.05390000      -0.39910000       0.72850000
N        0.48030000      -0.86740000      -0.88210000
C        0.19250000      -2.29010000      -0.96860000
C       -0.12470000      -2.72480000      -2.38150000
C        0.99400000      -3.04190000      -3.34770000
C        0.12560000      -4.14830000      -2.80190000
H        1.01430000       1.63270000      -0.86440000
H       -0.65950000       2.03330000      -0.40930000
H        0.54770000       1.77780000       0.84710000
H        1.15950000      -0.48620000      -1.51980000
H        1.04390000      -2.87340000      -0.58890000
H       -0.65120000      -2.46610000      -0.29680000
H       -1.00070000      -2.24210000      -2.80600000
H        0.87670000      -2.75820000      -4.38750000
H        2.01540000      -2.98120000      -2.98380000
H        0.56450000      -4.82190000      -2.07300000
H       -0.58880000      -4.62060000      -3.46630000
