16
Properties=species:S:1:pos:R:3 gdb_86869=T pbc="F F F"
C       -0.24660000       1.53700000      -0.01880000
C        0.28290000       0.11550000      -0.09920000
O        1.43560000       0.05510000      -0.95070000
C        2.37860000      -0.80710000      -0.36990000
O        2.04550000      -0.94130000       1.00860000
C        0.79400000      -0.42720000       1.22130000
N        0.17850000      -0.40250000       2.31710000
C        2.31230000      -2.18960000      -1.02870000
O        3.24260000      -2.70090000      -1.58770000
H        0.53260000       2.21490000       0.33850000
H       -0.58540000       1.87260000      -1.00180000
H       -1.08560000       1.56570000       0.68060000
H       -0.49920000      -0.55490000      -0.48300000
H        3.38650000      -0.39250000      -0.47000000
H        0.72190000      -0.83590000       3.06430000
H        1.31290000      -2.67460000      -0.95660000
