21
Properties=species:S:1:pos:R:3 gdb_91459=T pbc="F F F"
C       -0.09280000       1.53600000      -0.02390000
C       -0.00010000       0.00890000      -0.01160000
C        0.91510000      -0.53960000      -1.15070000
C        1.98840000      -1.31960000      -0.33080000
O        2.11930000      -0.48250000       0.82270000
C        0.74850000      -0.57150000       1.25700000
C        0.54570000       0.11830000       2.58650000
C        0.51530000      -2.08400000       1.21600000
C        1.29410000      -2.55060000       0.24270000
H        0.89890000       1.98370000       0.09860000
H       -0.50420000       1.88950000      -0.97520000
H       -0.74020000       1.91230000       0.77460000
H       -1.00750000      -0.41380000      -0.07400000
H        0.38940000      -1.17060000      -1.87110000
H        1.38650000       0.28300000      -1.69570000
H        2.95280000      -1.46180000      -0.81740000
H        0.84960000       1.16660000       2.53900000
H       -0.50760000       0.07870000       2.88250000
H        1.13900000      -0.37530000       3.36110000
H       -0.21690000      -2.61040000       1.81420000
H        1.35490000      -3.55320000      -0.15910000
