18
Properties=species:S:1:pos:R:3 gdb_22154=T pbc="F F F"
C        1.04370000       0.38720000       0.06160000
C       -0.23200000      -0.39750000       0.17790000
C       -0.84430000      -0.60010000       1.54320000
O       -0.01590000      -1.36570000       2.41410000
C       -0.04810000      -2.75570000       2.17990000
C        0.89430000      -3.22680000       1.07650000
O        0.81760000      -4.30740000       0.55570000
N       -0.87400000      -0.93210000      -0.79150000
O       -0.26850000      -0.69130000      -2.02670000
H        1.60510000       0.33130000       0.99710000
H        1.65650000       0.01800000      -0.76240000
H        0.82470000       1.44290000      -0.14090000
H       -0.96560000       0.36720000       2.04370000
H       -1.83100000      -1.06620000       1.42950000
H        0.28900000      -3.23360000       3.10970000
H       -1.06090000      -3.12420000       1.96560000
H        1.69860000      -2.49910000       0.82420000
H       -0.82790000      -1.19160000      -2.63090000
