19
Properties=species:S:1:pos:R:3 gdb_83123=T pbc="F F F"
C       -0.16150000       1.51420000      -0.00650000
C        0.09510000       0.02820000       0.01390000
C       -0.76980000      -0.89690000       0.87620000
O       -1.25530000      -2.12800000       0.42980000
C        0.67780000      -0.77430000       1.18560000
C        1.60440000      -1.86230000       0.63470000
C        1.35980000      -1.90890000      -0.88650000
C        0.64060000      -0.60390000      -1.23580000
O        0.55790000      -0.11620000      -2.33800000
H        0.77200000       2.07740000      -0.11020000
H       -0.79600000       1.77530000      -0.85890000
H       -0.65560000       1.84790000       0.91100000
H       -1.45350000      -0.35640000       1.53200000
H       -2.00260000      -1.96440000      -0.15570000
H        0.96480000      -0.27400000       2.10460000
H        2.64100000      -1.58270000       0.84620000
H        1.42120000      -2.82650000       1.11650000
H        2.27430000      -1.99460000      -1.47790000
H        0.70420000      -2.73820000      -1.16780000
