19
Properties=species:S:1:pos:R:3 gdb_98206=T pbc="F F F"
C        0.11760000       1.52700000       0.06390000
C        0.15580000       0.00470000      -0.05150000
C        0.71820000      -0.49050000      -1.36350000
O        1.03090000       0.23850000      -2.27770000
C        0.89070000      -2.02080000      -1.55890000
O        1.24270000      -2.28770000      -2.89070000
C        1.87790000      -2.52360000      -0.59530000
C        2.70090000      -2.93090000       0.18420000
C        3.69770000      -3.43980000       1.11460000
H        1.12370000       1.94910000      -0.00260000
H       -0.47480000       1.96640000      -0.74230000
H       -0.31960000       1.82750000       1.01980000
H        0.74040000      -0.45230000       0.75540000
H       -0.85120000      -0.42610000       0.04760000
H       -0.08380000      -2.48920000      -1.34420000
H        1.45890000      -1.41760000      -3.26690000
H        4.38740000      -4.12520000       0.61010000
H        4.29310000      -2.62860000       1.54750000
H        3.22910000      -3.98800000       1.93910000
