20
Properties=species:S:1:pos:R:3 gdb_52139=T pbc="F F F"
N        0.39430000       0.46670000       1.50880000
C        0.03260000      -0.09560000       0.43760000
O       -0.93210000      -1.03200000       0.45740000
C       -1.21710000      -1.68320000      -0.78820000
C       -2.51030000      -2.44780000      -0.60490000
C       -2.96060000      -3.54120000      -1.62560000
C       -1.89780000      -4.50130000      -1.01140000
C       -2.56820000      -3.78720000       0.19930000
C       -3.92820000      -4.04550000      -0.51400000
H        1.11730000       1.15510000       1.31040000
H        0.42940000       0.10590000      -0.56820000
H       -1.33760000      -0.93060000      -1.58060000
H       -0.37480000      -2.32760000      -1.06240000
H       -3.29860000      -1.73790000      -0.33120000
H       -3.19120000      -3.39700000      -2.68270000
H       -2.10500000      -5.57000000      -1.11100000
H       -0.84430000      -4.29820000      -1.20950000
H       -2.34120000      -3.92090000       1.25680000
H       -4.75810000      -3.38560000      -0.24700000
H       -4.24890000      -5.08760000      -0.58780000
