16
Properties=species:S:1:pos:R:3 gdb_17417=T pbc="F F F"
O       -0.04970000       1.32640000      -0.09670000
C        0.04100000      -0.06160000      -0.00030000
C       -0.44630000      -0.76060000       1.26750000
C       -1.23720000      -0.83050000      -0.00020000
O       -2.45990000      -0.07120000      -0.12560000
C       -3.04830000      -1.16830000      -0.84810000
C       -2.31050000      -1.45060000      -2.11740000
C       -1.78130000      -1.98780000      -0.79870000
H       -0.96410000       1.52650000      -0.33860000
H        0.91320000      -0.47020000      -0.50490000
H        0.07580000      -1.65300000       1.59900000
H       -0.84200000      -0.12790000       2.05520000
H       -4.08610000      -1.39760000      -0.64120000
H       -2.76570000      -2.19670000      -2.76160000
H       -1.79220000      -0.64650000      -2.63180000
H       -1.62600000      -3.03640000      -0.58750000
