19
Properties=species:S:1:pos:R:3 gdb_107893=T pbc="F F F"
O        0.61400000       0.20840000       0.81940000
C       -0.32310000       0.47250000      -0.23160000
C       -1.57940000      -0.36010000      -0.15940000
C       -2.64900000      -0.47860000      -1.26750000
C       -3.15970000      -1.39480000      -0.14330000
C       -1.71860000      -1.88920000       0.22690000
C       -1.96770000      -1.57780000       1.72610000
O       -0.91850000      -1.33290000       2.61060000
C       -2.67340000      -0.42230000       0.98340000
H        1.03990000      -0.63400000       0.62570000
H       -0.57000000       1.53640000      -0.14700000
H        0.15700000       0.32770000      -1.21020000
H       -3.23990000       0.41880000      -1.48010000
H       -2.33760000      -0.96270000      -2.19970000
H       -4.06400000      -2.00230000      -0.10590000
H       -1.19150000      -2.72400000      -0.24180000
H       -2.64310000      -2.28210000       2.22400000
H       -0.35810000      -0.64070000       2.22320000
H       -3.23040000       0.42910000       1.38080000
