16
Properties=species:S:1:pos:R:3 gdb_124078=T pbc="F F F"
C        0.00070000       1.56680000       0.01040000
O        1.43170000       1.53070000       0.16780000
C        1.41300000       0.10730000       0.38540000
C       -0.09110000       0.01790000       0.01490000
C       -1.02670000      -0.64410000       0.96320000
N       -1.06780000      -0.35140000       2.25770000
N       -2.03940000      -1.17630000       2.71000000
C       -2.53470000      -1.91560000       1.69900000
N       -1.91880000      -1.60770000       0.57510000
H       -0.49670000       2.03970000       0.86610000
H       -0.30140000       2.06930000      -0.91530000
H        2.10910000      -0.42150000      -0.27540000
H        1.62510000      -0.15330000       1.42950000
H       -0.25830000      -0.39870000      -0.97810000
H       -2.29090000      -1.16880000       3.68500000
H       -3.32080000      -2.64460000       1.82630000
