20
Properties=species:S:1:pos:R:3 gdb_69835=T pbc="F F F"
C       -0.09360000       1.53000000       0.08620000
C        0.00850000       0.02450000       0.04920000
C       -1.22110000      -0.69840000      -0.49000000
O       -1.01670000      -2.10440000      -0.58500000
C       -0.80290000      -2.71140000       0.66050000
C        0.52240000      -3.38840000       0.85940000
C        0.23780000      -2.06150000       1.53280000
C        0.79700000      -0.74700000       1.05220000
N        1.31640000      -0.54110000      -0.31510000
H        0.82920000       1.96300000       0.47970000
H       -0.25350000       1.93870000      -0.91860000
H       -0.92740000       1.85560000       0.71900000
H       -2.09560000      -0.47040000       0.14010000
H       -1.44520000      -0.36470000      -1.50910000
H       -1.69950000      -3.14180000       1.10370000
H        0.55850000      -4.27470000       1.48300000
H        1.19890000      -3.40560000       0.01180000
H        0.07350000      -2.09390000       2.60540000
H        1.36110000      -0.19850000       1.80340000
H        1.16840000      -1.38070000      -0.87250000
