25
Properties=species:S:1:pos:R:3 gdb_62508=T pbc="F F F"
C       -0.10130000       1.52810000       0.12680000
C        0.01760000       0.01260000       0.04910000
C       -1.10410000      -0.66410000       0.82450000
C        0.55730000      -0.65990000      -1.22790000
C       -0.05360000      -1.97520000      -1.69300000
C        0.97840000       0.19030000      -2.41850000
C        1.39240000      -0.65790000       0.03870000
C        2.68510000       0.12120000       0.17370000
O        1.49550000      -1.92540000       0.65440000
H        0.68070000       2.06360000      -0.41200000
H       -1.06390000       1.85720000      -0.28340000
H       -0.06530000       1.86120000       1.17120000
H       -2.06950000      -0.51830000       0.32570000
H       -0.94090000      -1.73410000       0.94830000
H       -1.19080000      -0.22340000       1.82560000
H       -1.00900000      -1.79840000      -2.20110000
H        0.61320000      -2.46280000      -2.41360000
H       -0.21690000      -2.67730000      -0.87790000
H        1.43170000       1.14420000      -2.14780000
H        1.70400000      -0.35330000      -3.03490000
H        0.11200000       0.40840000      -3.05420000
H        2.66260000       1.08840000      -0.32900000
H        2.90700000       0.30980000       1.23230000
H        3.51490000      -0.46100000      -0.23980000
H        1.60050000      -1.78290000       1.60190000
