18
Properties=species:S:1:pos:R:3 gdb_85768=T pbc="F F F"
C       -0.66450000       0.97160000       1.33790000
C       -0.05090000      -0.02720000       0.36390000
C        0.28440000       0.40950000      -1.10290000
C        1.71480000      -0.17980000      -0.96900000
C        2.90480000       0.69940000      -1.35010000
N        4.04600000       0.37670000      -0.67530000
O        2.82660000       1.57210000      -2.19000000
C        1.43710000      -0.36030000       0.53230000
O        2.15850000      -0.55030000       1.47450000
H       -0.10570000       1.91290000       1.33880000
H       -1.70080000       1.19430000       1.06630000
H       -0.65510000       0.57350000       2.35680000
H       -0.62320000      -0.96410000       0.37010000
H       -0.33990000      -0.02100000      -1.88540000
H        0.31660000       1.49340000      -1.23030000
H        1.83550000      -1.15310000      -1.45840000
H        3.96900000      -0.13850000       0.19150000
H        4.83350000       0.99580000      -0.79110000
