16
Properties=species:S:1:pos:R:3 gdb_35004=T pbc="F F F"
C        0.03180000      -1.21030000       0.04050000
C        0.03060000      -0.00710000       0.01560000
C        0.01640000       1.41410000      -0.03980000
C       -0.72710000       2.27420000      -1.08200000
C        0.46250000       3.28850000      -1.07500000
C        1.17610000       2.42700000      -0.03050000
C        0.32190000       2.25370000       1.20360000
C       -0.58100000       3.27120000       1.67150000
N       -1.31450000       4.09330000       2.02510000
H        0.03200000      -2.27190000       0.06690000
H       -0.82680000       1.75350000      -2.03460000
H       -1.70450000       2.64880000      -0.76990000
H        0.99260000       3.30910000      -2.02820000
H        0.23550000       4.31290000      -0.77000000
H        2.23880000       2.22490000       0.02380000
H        0.79470000       1.68280000       1.99600000
