19
Properties=species:S:1:pos:R:3 gdb_83315=T pbc="F F F"
O       -0.26030000       1.48280000      -0.23480000
C       -0.04230000       0.12360000       0.01170000
C       -0.40750000      -0.53270000       1.32170000
C       -1.26880000       0.23070000       2.32100000
C       -2.49950000       0.74530000       1.53740000
C       -2.61080000      -0.15050000       0.28280000
C       -3.14780000       0.56610000      -0.94200000
O       -3.71940000       1.62510000      -0.92610000
C       -1.23420000      -0.78750000       0.06790000
H        0.37450000       1.99230000       0.27960000
H        0.83630000      -0.28380000      -0.48970000
H        0.27040000      -1.28860000       1.70530000
H       -1.57310000      -0.46220000       3.11340000
H       -0.72830000       1.04810000       2.81210000
H       -3.41050000       0.71680000       2.13980000
H       -2.35780000       1.77670000       1.21490000
H       -3.31510000      -0.97920000       0.45880000
H       -2.99470000       0.01340000      -1.89850000
H       -1.18630000      -1.72910000      -0.46820000
