21
Properties=species:S:1:pos:R:3 gdb_95644=T pbc="F F F"
C        0.19670000       1.58920000      -0.00840000
C        0.19240000       0.05930000       0.03600000
N        0.72940000      -0.53740000      -1.19640000
C       -0.02570000      -0.15620000      -2.38180000
C        0.80840000      -1.98380000      -1.06580000
C        1.78780000      -2.32010000       0.03650000
O        1.41430000      -1.71870000       1.27960000
C        0.93410000      -0.44380000       1.27840000
N        0.98730000       0.26410000       2.32690000
H        1.18800000       1.95470000      -0.29160000
H       -0.53670000       1.96810000      -0.72330000
H       -0.04390000       1.97700000       0.98050000
H       -0.85730000      -0.27960000       0.17980000
H        0.05110000       0.91720000      -2.56230000
H        0.39260000      -0.67060000      -3.25190000
H       -1.09900000      -0.41900000      -2.31330000
H       -0.17760000      -2.44290000      -0.85020000
H        1.17130000      -2.41260000      -2.00610000
H        1.82550000      -3.39570000       0.22670000
H        2.79090000      -1.97150000      -0.23970000
H        1.46250000      -0.25500000       3.06800000
