22
Properties=species:S:1:pos:R:3 gdb_59393=T pbc="F F F"
C        0.17470000       0.83720000       1.56550000
C       -0.46470000      -0.54170000       1.78690000
C       -1.09660000      -0.65750000       3.18080000
C       -1.49790000      -0.80680000       0.70850000
N       -1.01950000      -1.18090000      -0.62610000
C       -1.82700000      -2.16350000       0.14660000
C       -1.10100000      -3.43080000       0.56170000
C       -3.19390000      -2.36470000      -0.27100000
C       -4.32610000      -2.54940000      -0.63510000
H        0.95330000       1.03170000       2.31020000
H        0.62710000       0.89850000       0.57160000
H       -0.57200000       1.63610000       1.64980000
H        0.32690000      -1.29320000       1.69520000
H       -1.90250000       0.07500000       3.30810000
H       -1.52230000      -1.65200000       3.34750000
H       -0.35430000      -0.47080000       3.96330000
H       -2.34730000      -0.12350000       0.74740000
H       -1.59540000      -0.75490000      -1.34770000
H       -1.12030000      -4.15630000      -0.25690000
H       -0.05800000      -3.21930000       0.80070000
H       -1.58260000      -3.88840000       1.43120000
H       -5.32750000      -2.70750000      -0.95070000
