21
Properties=species:S:1:pos:R:3 gdb_63585=T pbc="F F F"
C       -0.01280000       1.51280000      -0.03950000
C       -0.02750000      -0.00220000       0.05370000
C       -1.30180000      -0.64870000      -0.45710000
C        1.28870000      -0.74300000      -0.17310000
C        0.68050000      -0.65140000       1.20440000
C        1.35480000       0.06830000       2.37910000
O        1.28490000      -0.87140000       3.44940000
C        0.93430000      -2.10630000       2.86820000
O        0.10660000      -1.81030000       1.77070000
H        0.92730000       1.94020000       0.32270000
H       -0.13940000       1.83210000      -1.08040000
H       -0.82900000       1.95460000       0.54380000
H       -1.44310000      -0.42670000      -1.52100000
H       -1.28100000      -1.73240000      -0.32860000
H       -2.17590000      -0.26710000       0.08280000
H        1.24210000      -1.70790000      -0.66700000
H        2.18100000      -0.16070000      -0.38650000
H        2.39750000       0.32740000       2.15190000
H        0.82670000       0.97600000       2.68970000
H        1.83710000      -2.65220000       2.53710000
H        0.37240000      -2.70160000       3.59280000
