19
Properties=species:S:1:pos:R:3 gdb_79298=T pbc="F F F"
C        0.00370000       1.61220000      -0.00310000
C        0.09850000       0.09180000       0.01140000
C        0.80070000      -0.66510000      -1.11830000
C        2.28010000      -0.79750000      -0.75550000
C        2.49600000      -0.12840000       0.59950000
C        1.08240000      -0.64670000       0.97130000
C        1.25500000      -1.75840000      -0.15960000
C        1.12840000      -3.16080000      -0.17870000
C        1.01530000      -4.36060000      -0.17400000
H        0.96980000       2.08610000      -0.19740000
H       -0.68740000       1.94570000      -0.78500000
H       -0.37350000       1.99110000       0.95370000
H       -0.89870000      -0.34120000       0.14880000
H        0.46200000      -0.81270000      -2.13620000
H        3.01850000      -1.04160000      -1.50830000
H        3.26870000      -0.64980000       1.17040000
H        2.67830000       0.95040000       0.64060000
H        0.80940000      -0.83760000       2.00690000
H        0.91680000      -5.41730000      -0.17410000
