14
Properties=species:S:1:pos:R:3 gdb_27969=T pbc="F F F"
O        0.48840000       1.34270000       0.31840000
C        0.23510000       0.03240000       0.13400000
N        0.28970000      -0.44090000      -1.10140000
C        0.03600000      -1.74930000      -1.27980000
C        0.11110000      -2.22850000      -2.68850000
O       -0.08770000      -3.37010000      -3.02810000
C       -0.27720000      -2.61910000      -0.24240000
C       -0.32920000      -2.09890000       1.05140000
C       -0.07110000      -0.75400000       1.25560000
H        0.67520000       1.70900000      -0.55740000
H        0.37020000      -1.42730000      -3.41160000
H       -0.46940000      -3.66120000      -0.46300000
H       -0.56960000      -2.73950000       1.89330000
H       -0.09790000      -0.29920000       2.23790000
