18
Properties=species:S:1:pos:R:3 gdb_96528=T pbc="F F F"
N       -0.01520000       1.41900000       0.21930000
C       -0.02290000      -0.01100000      -0.04770000
C       -1.47180000      -0.54460000       0.00330000
C       -1.54550000      -2.05890000      -0.26180000
O       -0.32520000      -2.67460000       0.15500000
C        0.62220000      -2.80240000      -0.85150000
O        0.78020000      -1.68000000      -1.73020000
C        0.64140000      -0.36880000      -1.38940000
O        0.98510000       0.46370000      -2.18420000
H        0.94390000       1.72710000       0.35440000
H       -0.32010000       1.90390000      -0.62190000
H        0.53440000      -0.51230000       0.74940000
H       -1.85830000      -0.30350000       0.99670000
H       -2.09220000      -0.00370000      -0.72080000
H       -2.34480000      -2.52220000       0.32190000
H       -1.73250000      -2.27410000      -1.32090000
H        1.57600000      -3.01160000      -0.35530000
H        0.37030000      -3.61710000      -1.54430000
