19
Properties=species:S:1:pos:R:3 gdb_89140=T pbc="F F F"
C       -0.39810000       1.42910000       0.04720000
N        0.08440000       0.05770000       0.01090000
C        1.11090000      -0.37580000      -0.97420000
C        1.87330000      -1.09160000       0.15540000
C        2.47730000      -2.46150000       0.06510000
C        2.32010000      -0.05440000       1.18020000
C        2.81420000       1.24390000       0.81950000
N        3.22840000       2.28170000       0.51490000
C        0.84790000      -0.50150000       1.09930000
H        0.39310000       2.18670000       0.13390000
H       -0.97020000       1.62910000      -0.86450000
H       -1.07950000       1.54040000       0.89710000
H        0.69850000      -1.05370000      -1.72900000
H        1.65820000       0.43340000      -1.47340000
H        3.38280000      -2.45370000      -0.55230000
H        2.75290000      -2.84190000       1.05350000
H        1.77150000      -3.16890000      -0.38290000
H        2.83940000      -0.49220000       2.02910000
H        0.36840000      -0.91040000       1.98400000
