21
Properties=species:S:1:pos:R:3 gdb_39598=T pbc="F F F"
C       -0.01490000       1.58500000      -0.01370000
C        1.48270000       1.85080000      -0.08070000
C        2.19360000       0.82400000       0.39230000
C        1.25710000      -0.23240000       0.91760000
O        1.65290000      -1.58300000       0.79050000
C        0.65330000      -2.41510000       1.37290000
C       -0.74480000      -2.22010000       0.75740000
C       -1.18290000      -0.73740000       0.74070000
C       -0.03110000       0.05120000       0.12870000
H       -0.45750000       2.07990000       0.86440000
H       -0.56190000       1.94920000      -0.88980000
H        1.89590000       2.78850000      -0.43520000
H        3.27070000       0.77240000       0.49400000
H        1.07580000      -0.03270000       1.99520000
H        0.99440000      -3.44470000       1.23350000
H        0.60480000      -2.22040000       2.45890000
H       -0.73020000      -2.59690000      -0.27260000
H       -1.46090000      -2.83570000       1.31400000
H       -2.11480000      -0.62290000       0.17560000
H       -1.38280000      -0.38790000       1.76280000
H        0.16210000      -0.35620000      -0.87360000
