14
Properties=species:S:1:pos:R:3 gdb_5025=T pbc="F F F"
N        0.01000000       1.39130000       0.14390000
C       -0.05880000       0.01620000       0.05260000
C       -1.20720000      -0.71600000       0.03110000
N       -1.16110000      -2.09490000      -0.00760000
C        0.01660000      -2.76610000      -0.02210000
C        1.20400000      -2.09820000      -0.00830000
C        1.26020000      -0.65640000       0.01910000
O        2.29430000       0.01970000       0.00500000
H        0.95260000       1.70510000      -0.06410000
H       -0.72210000       1.92720000      -0.29480000
H       -2.19730000      -0.27800000       0.04840000
H       -2.02570000      -2.60770000      -0.02050000
H       -0.05560000      -3.84670000      -0.04870000
H        2.13770000      -2.64550000      -0.03240000
