19
Properties=species:S:1:pos:R:3 gdb_33141=T pbc="F F F"
C       -0.04560000       1.38780000       0.00020000
O       -0.01800000      -0.01860000       0.00520000
C        0.63240000      -0.55720000      -1.12340000
C        0.61480000      -2.04840000      -1.03680000
C        0.07030000      -2.80160000      -0.04680000
O        0.24270000      -4.12650000      -0.30180000
C        0.91230000      -4.21190000      -1.48160000
C        1.17350000      -2.97800000      -1.98920000
C        1.88740000      -2.64790000      -3.26300000
H        0.96910000       1.81700000       0.00170000
H       -0.58300000       1.78340000      -0.87650000
H       -0.56530000       1.70770000       0.90640000
H        0.13600000      -0.21740000      -2.05140000
H        1.67220000      -0.18510000      -1.18150000
H       -0.44910000      -2.55080000       0.86130000
H        1.13030000      -5.20880000      -1.82950000
H        1.25010000      -2.07680000      -3.94890000
H        2.78310000      -2.04200000      -3.08070000
H        2.20320000      -3.55580000      -3.78420000
