19
Properties=species:S:1:pos:R:3 gdb_110743=T pbc="F F F"
C        0.22260000       1.43870000       0.21430000
C       -0.19040000      -0.00450000      -0.09830000
C        0.57460000      -0.57400000      -1.27600000
C        1.90980000      -1.22540000      -1.18440000
O        2.02400000      -1.94630000       0.07500000
C        1.00230000      -2.80330000      -0.32360000
O        0.62200000      -3.77950000       0.23620000
C        0.73110000      -2.07320000      -1.61800000
C        0.31430000      -2.71000000      -2.91090000
H        1.28330000       1.49370000       0.47970000
H        0.05840000       2.09750000      -0.64560000
H       -0.35500000       1.83660000       1.05360000
H       -0.02930000      -0.63080000       0.78380000
H       -1.26310000      -0.04580000      -0.32180000
H        0.46010000      -0.00030000      -2.19720000
H        2.83420000      -0.97180000      -1.68490000
H       -0.73740000      -3.01220000      -2.87360000
H        0.43110000      -2.01230000      -3.74540000
H        0.91040000      -3.60230000      -3.12590000
