21
Properties=species:S:1:pos:R:3 gdb_57649=T pbc="F F F"
C        0.03700000       1.63760000      -0.00950000
C        0.05510000       0.10720000       0.05370000
O        0.76210000      -0.36360000       1.20060000
C       -1.36150000      -0.52450000      -0.01660000
C       -2.23550000      -0.24340000       1.18780000
C       -3.15190000       0.95690000       1.24190000
C       -3.72940000      -0.42740000       1.09120000
C        0.84360000      -0.44880000      -1.13190000
O        0.67560000      -0.10370000      -2.27220000
H        1.05300000       2.02760000       0.09990000
H       -0.35820000       1.96920000      -0.97270000
H       -0.58560000       2.05310000       0.78780000
H        0.41910000       0.09890000       1.97110000
H       -1.85010000      -0.17550000      -0.93360000
H       -1.23790000      -1.61090000      -0.11700000
H       -1.79750000      -0.55070000       2.13440000
H       -3.28140000       1.46980000       2.18880000
H       -3.18240000       1.61150000       0.37720000
H       -4.14200000      -0.70040000       0.12540000
H       -4.25010000      -0.86540000       1.93540000
H        1.58230000      -1.22990000      -0.84660000
