21
Properties=species:S:1:pos:R:3 gdb_83568=T pbc="F F F"
C       -0.27950000       1.51530000       0.01410000
C        0.05440000       0.02660000       0.02540000
C        0.99450000      -0.49500000      -1.07550000
C        2.30550000       0.30830000      -1.13590000
C        2.84910000       0.56020000       0.24930000
C        2.18150000       0.19270000       1.34440000
C        0.85000000      -0.52220000       1.23590000
C        1.06940000      -1.96520000       0.73970000
O        1.28320000      -1.84200000      -0.67240000
H        0.60720000       2.13770000       0.15510000
H       -0.75070000       1.80020000      -0.93300000
H       -0.98580000       1.75610000       0.81550000
H       -0.88220000      -0.54030000      -0.04990000
H        0.52230000      -0.53900000      -2.06220000
H        3.02750000      -0.26430000      -1.73130000
H        2.15730000       1.25860000      -1.67020000
H        3.80970000       1.06310000       0.32940000
H        2.59260000       0.37330000       2.33360000
H        0.29210000      -0.49040000       2.17480000
H        1.94150000      -2.44920000       1.19170000
H        0.18390000      -2.58960000       0.93140000
