14
Properties=species:S:1:pos:R:3 gdb_18694=T pbc="F F F"
O        0.06710000      -0.00250000       0.18150000
C        0.01180000       1.17150000      -0.05770000
O       -1.18390000       1.79470000      -0.18220000
C       -1.25130000       3.03530000      -0.91050000
C       -0.27370000       4.08740000      -0.39810000
C        1.12180000       3.49880000      -0.28440000
O        1.42630000       2.90140000       0.97250000
C        1.24690000       2.03450000      -0.15790000
H       -1.06390000       2.82450000      -1.97110000
H       -2.28760000       3.36340000      -0.80950000
H       -0.28000000       4.93970000      -1.08530000
H       -0.58090000       4.45150000       0.58720000
H        1.94850000       4.05160000      -0.72780000
H        2.13700000       1.50060000      -0.47970000
