16
Properties=species:S:1:pos:R:3 gdb_81758=T pbc="F F F"
N        0.19750000       1.44350000      -0.11990000
C        0.10630000       0.01740000      -0.00790000
C        0.30440000      -0.60700000       1.44970000
O        0.47790000       0.25140000       2.53130000
C       -1.06770000      -1.27910000       1.31850000
N       -2.01100000      -0.15740000       1.14210000
C       -1.27880000      -0.69020000      -0.04330000
C       -1.96830000      -1.23430000      -1.16350000
N       -2.50260000      -1.65860000      -2.09940000
H        0.13090000       1.74100000      -1.08740000
H       -0.55830000       1.88850000       0.39100000
H        0.79520000      -0.45210000      -0.71370000
H        1.13210000      -1.31850000       1.46250000
H       -0.32890000       0.77660000       2.60530000
H       -1.40190000      -2.23560000       1.70030000
H       -2.95990000      -0.52770000       1.12950000
