10
Properties=species:S:1:pos:R:3 gdb_130664=T pbc="F F F"
O        0.19470000      -0.03550000       0.29370000
C        0.78640000       0.96060000       0.23160000
N       -2.15820000       2.32370000      -0.76170000
N       -3.10030000       2.86210000      -0.58990000
O        0.23920000       3.76120000       0.69940000
C        1.29430000       3.29760000       0.34470000
N        1.52450000       1.92620000       0.12910000
C        2.47150000       4.09210000       0.09370000
C        3.42700000       4.79430000      -0.10320000
H        4.27200000       5.41550000      -0.27790000
