17
Properties=species:S:1:pos:R:3 gdb_116590=T pbc="F F F"
C       -0.47150000       0.35990000       0.94540000
C        0.38850000       0.48890000      -0.31260000
N        0.70680000      -0.83390000      -0.84070000
C        1.88610000      -1.15030000      -1.11150000
C        2.33880000      -2.49450000      -1.65500000
N        3.76760000      -2.29290000      -1.71370000
C        4.15280000      -1.03670000      -1.35390000
O        5.24260000      -0.54710000      -1.33540000
O        3.00430000      -0.34380000      -0.97270000
H       -1.37200000      -0.22500000       0.73810000
H        0.08150000      -0.14160000       1.74560000
H       -0.77130000       1.34860000       1.30600000
H       -0.18270000       1.01680000      -1.08680000
H        1.28490000       1.08540000      -0.10510000
H        2.04650000      -3.30560000      -0.97930000
H        1.89020000      -2.68730000      -2.63670000
H        4.43560000      -2.94030000      -2.09280000
