26
Properties=species:S:1:pos:R:3 gdb_113706=T pbc="F F F"
C       -2.80610000      -1.88190000      -3.24940000
C       -1.73430000      -2.37170000      -2.27540000
N       -1.66940000      -1.47310000      -1.12900000
C       -2.41740000      -1.80940000       0.07610000
C       -0.92610000      -1.74480000       0.10190000
C        0.01930000      -2.90900000       0.44330000
C        1.33770000      -2.71160000      -0.33340000
C        0.30810000      -2.79060000       1.95650000
C       -0.52600000      -4.32330000       0.17430000
H       -2.84790000      -2.52440000      -4.13480000
H       -3.79370000      -1.89210000      -2.77650000
H       -2.59580000      -0.85710000      -3.56710000
H       -1.95060000      -3.41510000      -2.00080000
H       -0.75650000      -2.36340000      -2.77130000
H       -3.02150000      -1.01860000       0.51630000
H       -2.87610000      -2.79700000       0.11890000
H       -0.50630000      -0.81540000       0.49210000
H        1.76110000      -1.71920000      -0.14490000
H        2.08290000      -3.45600000      -0.03130000
H        1.18600000      -2.80940000      -1.41280000
H       -0.60740000      -2.91900000       2.54330000
H        1.02350000      -3.55690000       2.27350000
H        0.73320000      -1.81290000       2.20670000
H       -0.65300000      -4.53020000      -0.89010000
H        0.18050000      -5.06420000       0.56500000
H       -1.48410000      -4.49310000       0.67460000
