15
Properties=species:S:1:pos:R:3 gdb_51997=T pbc="F F F"
N       -0.12650000       1.03300000       0.00390000
C       -0.33840000      -0.19870000       0.14750000
O       -0.54990000      -0.96940000      -0.94940000
C       -0.81670000      -2.32950000      -0.72660000
C       -2.21900000      -2.56720000      -0.18370000
O       -2.95380000      -1.72940000       0.25350000
O       -2.49250000      -3.90470000      -0.24980000
C       -3.71200000      -4.34400000       0.22180000
N       -3.94110000      -5.57740000       0.17860000
H        0.02880000       1.46980000       0.90980000
H       -0.35980000      -0.76120000       1.08950000
H       -0.71240000      -2.84180000      -1.68560000
H       -0.10000000      -2.79170000      -0.03180000
H       -4.34260000      -3.53160000       0.58240000
H       -4.87010000      -5.77210000       0.54970000
