23
Properties=species:S:1:pos:R:3 gdb_60114=T pbc="F F F"
C       -0.24950000       1.48150000      -0.11920000
C        0.02140000      -0.02630000      -0.05390000
C        0.83480000      -0.49210000      -1.26790000
C        0.73190000      -0.44610000       1.25720000
C       -0.02240000      -0.11920000       2.51590000
C       -1.03470000      -0.77720000       3.07780000
C       -1.47630000      -0.08690000       4.33570000
O       -0.63780000       1.06160000       4.44460000
C        0.30650000       1.07350000       3.38210000
H        0.68580000       2.05220000      -0.06560000
H       -0.74440000       1.74770000      -1.05900000
H       -0.89440000       1.81120000       0.70020000
H       -0.94790000      -0.54300000      -0.07250000
H        1.81650000      -0.00370000      -1.29370000
H        1.00280000      -1.57410000      -1.24770000
H        0.32060000      -0.24910000      -2.20350000
H        0.91280000      -1.52670000       1.21470000
H        1.72170000       0.03000000       1.28720000
H       -1.48980000      -1.69160000       2.71630000
H       -2.53150000       0.22870000       4.30400000
H       -1.36030000      -0.72530000       5.22740000
H        1.33360000       1.00770000       3.78150000
H        0.23960000       2.02810000       2.83700000
