21
Properties=species:S:1:pos:R:3 gdb_108621=T pbc="F F F"
C        0.26210000       1.55490000      -0.18890000
C       -0.05140000       0.07180000       0.08290000
C        0.65540000      -0.47120000       1.27870000
C        0.22440000      -0.95450000       2.45290000
C       -1.13220000      -1.15100000       3.03320000
C        1.56330000      -1.31890000       3.13370000
C        2.41720000      -0.04400000       2.87130000
C        2.18670000      -0.62110000       1.44460000
O        2.29560000      -1.96080000       2.03550000
H        1.33520000       1.71340000      -0.33950000
H       -0.25560000       1.90450000      -1.08740000
H       -0.05180000       2.18130000       0.65190000
H       -1.13320000      -0.05550000       0.20530000
H        0.22830000      -0.51490000      -0.80390000
H       -1.91820000      -0.82340000       2.34640000
H       -1.31430000      -2.20650000       3.27330000
H       -1.25430000      -0.59260000       3.97060000
H        1.56500000      -1.87660000       4.07060000
H        1.99710000       0.93320000       3.11990000
H        3.45090000      -0.14930000       3.21020000
H        2.84880000      -0.44330000       0.59670000
