17
Properties=species:S:1:pos:R:3 gdb_45998=T pbc="F F F"
O       -0.07950000      -0.02980000       0.23890000
C       -0.02280000       1.17370000       0.13710000
C       -1.22400000       2.12900000       0.02520000
C       -0.61870000       3.53960000      -0.09270000
C        0.87870000       3.31060000      -0.03560000
C        1.19370000       2.01200000       0.10110000
C        1.84490000       4.42100000      -0.10580000
C        1.67540000       5.55910000      -1.03560000
O        1.39000000       5.70660000       0.34660000
H       -1.82920000       1.84800000      -0.84140000
H       -1.86130000       2.01050000       0.90610000
H       -0.90530000       4.03910000      -1.02560000
H       -0.92590000       4.21150000       0.71490000
H        2.18990000       1.59480000       0.18190000
H        2.86310000       4.17760000       0.19540000
H        2.56510000       6.07450000      -1.39450000
H        0.81550000       5.59110000      -1.70180000
