21
Properties=species:S:1:pos:R:3 gdb_115630=T pbc="F F F"
C        0.27550000       1.47670000       0.35480000
O        0.85260000       0.20840000       0.12370000
C        0.71950000      -0.67480000       1.20930000
C       -0.63970000      -1.37760000       1.49780000
C        0.14980000      -2.70690000       1.71380000
C        1.33650000      -2.05230000       0.99440000
C        1.95140000      -2.47970000      -0.32150000
C        2.80500000      -2.31260000       0.90910000
O        3.69770000      -1.24030000       1.03130000
H        0.71840000       1.96900000       1.23440000
H        0.46780000       2.08860000      -0.52960000
H       -0.81090000       1.40750000       0.50840000
H        1.11940000      -0.20130000       2.12190000
H       -1.24520000      -1.00290000       2.32590000
H       -1.24590000      -1.41810000       0.58900000
H        0.34700000      -2.91170000       2.77060000
H       -0.26870000      -3.60510000       1.25410000
H        1.74540000      -3.48660000      -0.67320000
H        2.02750000      -1.73040000      -1.10360000
H        3.22310000      -3.19830000       1.37700000
H        3.31000000      -0.48410000       0.57430000
