20
Properties=species:S:1:pos:R:3 gdb_110327=T pbc="F F F"
C        0.08870000       1.18130000      -0.23810000
O       -0.08710000       0.03630000       0.57450000
C       -1.28740000      -0.62530000       0.32810000
C       -1.49150000      -1.71240000      -0.72200000
N       -0.35270000      -2.59800000      -0.92160000
C        0.81670000      -2.13450000      -1.64860000
C       -0.24470000      -2.87700000       0.53330000
C       -1.49910000      -2.02840000       0.78020000
O       -2.56030000      -2.43190000       1.56860000
H        1.04270000       1.63290000       0.04360000
H        0.11320000       0.92250000      -1.30580000
H       -0.71470000       1.91550000      -0.07620000
H       -2.18050000      -0.00600000       0.45530000
H       -2.30030000      -1.67150000      -1.44570000
H        1.34040000      -1.29250000      -1.17110000
H        1.52600000      -2.96270000      -1.75670000
H        0.51260000      -1.82980000      -2.65560000
H       -0.39390000      -3.93690000       0.76400000
H        0.67150000      -2.51360000       1.01410000
H       -2.45990000      -2.02900000       2.43820000
