20
Properties=species:S:1:pos:R:3 gdb_112074=T pbc="F F F"
C        0.84690000      -0.37390000       1.33990000
C        0.00810000      -0.03890000       0.10360000
C        0.73090000      -0.34320000      -1.22570000
C        0.94340000      -1.81640000      -1.48290000
C        0.30650000      -2.22800000      -2.57500000
C       -0.41490000      -1.09880000      -3.25510000
N       -0.06180000       0.04100000      -2.40610000
C       -0.27590000       1.31460000      -2.81370000
O       -0.86120000       1.62480000      -3.83280000
H        1.06520000      -1.44450000       1.40570000
H        1.80340000       0.16100000       1.32870000
H        0.32000000      -0.08950000       2.25510000
H       -0.93790000      -0.59230000       0.11940000
H       -0.25130000       1.02620000       0.11630000
H        1.69120000       0.19650000      -1.22280000
H        1.53790000      -2.43250000      -0.82120000
H        0.28710000      -3.23960000      -2.96030000
H       -0.08450000      -0.92580000      -4.28730000
H       -1.50250000      -1.25110000      -3.29930000
H        0.14710000       2.05980000      -2.10990000
