15
Properties=species:S:1:pos:R:3 gdb_132901=T pbc="F F F"
C       -0.01080000       1.54820000       0.01610000
C       -0.03280000       0.04750000       0.00330000
C       -1.15110000      -0.71220000      -0.15470000
N       -1.08650000      -2.06300000      -0.15500000
C        0.11320000      -2.78580000       0.00400000
N        0.04170000      -4.05910000      -0.01460000
N        1.26080000      -2.01630000       0.16630000
C        1.15520000      -0.73960000       0.16050000
F        2.27870000      -0.04350000       0.31890000
H        0.62220000       1.94950000      -0.78260000
H       -1.01890000       1.94960000      -0.11930000
H        0.38370000       1.93800000       0.96060000
H       -2.13680000      -0.27980000      -0.28640000
H       -1.91480000      -2.62690000      -0.27210000
H        0.97490000      -4.44520000       0.11030000
