15
Properties=species:S:1:pos:R:3 gdb_34465=T pbc="F F F"
N        0.03100000      -1.07850000      -0.03730000
C        0.01020000       0.07710000      -0.04590000
C       -0.06920000       1.51150000      -0.03980000
C       -1.29730000       2.18170000       0.58810000
O       -1.43280000       3.42590000      -0.09780000
C       -0.17340000       3.69340000      -0.68450000
C        0.96590000       3.65040000       0.36580000
N        1.26510000       2.21010000       0.03410000
C        0.39270000       2.33910000      -1.17880000
H       -2.19880000       1.58250000       0.43130000
H       -1.16400000       2.33530000       1.66650000
H       -0.26450000       4.54570000      -1.35480000
H        1.83950000       4.24060000       0.08220000
H        0.69990000       3.85770000       1.40590000
H        0.66350000       1.98290000      -2.16430000
