16
Properties=species:S:1:pos:R:3 gdb_23571=T pbc="F F F"
O       -0.10040000       1.36120000      -0.01830000
N        0.05230000      -0.04060000       0.00460000
C       -1.05910000      -0.61900000       0.09760000
C       -2.55460000      -0.33260000       0.04780000
N       -2.56910000      -1.51630000      -0.90750000
C       -1.49990000      -2.06660000       0.02410000
C       -2.26050000      -2.22780000       1.36980000
N       -1.94060000      -1.17990000       2.36630000
C       -3.02980000      -0.95800000       1.38680000
H        0.81260000       1.65820000      -0.09470000
H       -2.98080000       0.60740000      -0.29250000
H       -3.44070000      -2.04640000      -0.82120000
H       -0.86960000      -2.87540000      -0.33890000
H       -2.65380000      -3.18770000       1.68360000
H       -2.34770000      -1.43810000       3.26480000
H       -4.05820000      -0.86820000       1.71640000
