19
Properties=species:S:1:pos:R:3 gdb_86950=T pbc="F F F"
O        0.15640000       1.41300000      -0.07780000
C        0.05230000       0.01690000      -0.07370000
C        0.39630000      -0.77240000       1.22090000
C       -0.86490000      -1.65110000       0.97130000
C       -1.74520000      -2.04080000       2.16070000
C       -1.05070000      -3.05350000       3.04170000
O       -0.79090000      -2.89720000       4.20670000
C       -1.39500000      -0.57320000      -0.01100000
O       -2.26820000       0.31850000       0.66810000
H       -0.43840000       1.72290000       0.61710000
H        0.60810000      -0.34810000      -0.94160000
H        1.36770000      -1.26830000       1.27260000
H        0.27670000      -0.14220000       2.10750000
H       -0.59740000      -2.54650000       0.39870000
H       -2.01510000      -1.16710000       2.75680000
H       -2.67130000      -2.50170000       1.78740000
H       -0.77040000      -3.99880000       2.51680000
H       -1.84850000      -0.92820000      -0.94440000
H       -2.58410000       0.96040000       0.02370000
