21
Properties=species:S:1:pos:R:3 gdb_75208=T pbc="F F F"
C       -0.44560000       1.51300000       0.06640000
C       -0.03370000       0.06800000      -0.01240000
C       -0.10390000      -0.63170000      -1.14520000
C        0.27550000      -2.07690000      -1.30560000
C        0.99770000      -2.67830000      -0.11490000
C        1.09240000      -4.18660000      -0.09080000
O        2.20960000      -1.99550000       0.25200000
C        1.08440000      -1.90540000       1.13440000
C        0.45410000      -0.54100000       1.28010000
H        0.39370000       2.14620000       0.38250000
H       -0.80710000       1.88320000      -0.89650000
H       -1.24140000       1.66090000       0.80840000
H       -0.47200000      -0.14010000      -2.04350000
H       -0.62560000      -2.67540000      -1.50820000
H        0.90900000      -2.20110000      -2.19600000
H        1.57270000      -4.55660000      -1.00380000
H        1.68610000      -4.51980000       0.76410000
H        0.09850000      -4.64250000      -0.02720000
H        1.21360000      -2.45600000       2.06840000
H        1.17880000       0.13480000       1.75790000
H       -0.38240000      -0.61520000       1.99170000
