16
Properties=species:S:1:pos:R:3 gdb_65058=T pbc="F F F"
C        0.04560000       0.96100000      -1.28860000
C       -0.02530000       0.04580000      -0.08960000
C        1.17150000      -0.60020000       0.46900000
O        0.57170000       0.53150000       1.11060000
C       -1.36220000      -0.63590000       0.11870000
C       -1.97140000      -0.73140000       1.45930000
O       -2.44220000       0.21880000       0.50400000
C       -1.69570000      -1.63620000      -0.88230000
N       -1.91750000      -2.43160000      -1.69100000
H        1.03260000       1.42350000      -1.35200000
H       -0.14590000       0.40640000      -2.21250000
H       -0.70730000       1.74980000      -1.19980000
H        1.08180000      -1.54260000       1.00680000
H        2.13830000      -0.41580000       0.00480000
H       -2.65100000      -1.55280000       1.67520000
H       -1.40990000      -0.31630000       2.29130000
