20
Properties=species:S:1:pos:R:3 gdb_8180=T pbc="F F F"
C       -0.08410000       1.53450000       0.06230000
C        0.06790000       0.01560000       0.03940000
C        0.99910000      -0.56020000      -1.07920000
C        1.98180000      -1.36640000      -0.20370000
C        2.30380000      -0.35690000       0.93390000
C        0.79350000      -0.58700000       1.26200000
O        0.19750000      -0.23260000       2.46960000
C        1.02260000      -2.06120000       0.80470000
H        0.88510000       2.04160000       0.11600000
H       -0.58900000       1.88670000      -0.84350000
H       -0.67530000       1.85030000       0.92680000
H       -0.93170000      -0.42970000      -0.02310000
H        0.46240000      -1.18980000      -1.79490000
H        1.50320000       0.23260000      -1.64180000
H        2.77170000      -1.92130000      -0.70780000
H        2.95950000      -0.78420000       1.69840000
H        2.64260000       0.64710000       0.66590000
H        0.70320000      -0.62680000       3.18720000
H        0.16700000      -2.62040000       0.41390000
H        1.55690000      -2.65440000       1.55270000
