18
Properties=species:S:1:pos:R:3 gdb_90743=T pbc="F F F"
C        0.25540000       1.56500000      -0.04700000
C        0.09530000       0.06130000       0.05610000
N        1.00300000      -0.74860000      -0.80340000
C        1.25740000      -1.71270000       0.30080000
C        0.67360000      -0.68760000       1.29180000
O        1.76570000      -0.03970000       1.94170000
C        3.01880000      -0.51110000       1.46920000
C        2.75080000      -1.74710000       0.60680000
O        3.56280000      -2.55580000       0.24590000
H        1.28520000       1.85920000       0.16690000
H       -0.00220000       1.91010000      -1.05370000
H       -0.40470000       2.07240000       0.66460000
H       -0.96140000      -0.22020000      -0.06980000
H        0.60490000      -1.14600000      -1.64590000
H        0.79650000      -2.70050000       0.22550000
H       -0.04010000      -1.00690000       2.05330000
H        3.53120000       0.25060000       0.86500000
H        3.66330000      -0.76790000       2.31700000
