19
Properties=species:S:1:pos:R:3 gdb_122038=T pbc="F F F"
C        0.08740000       1.52300000      -0.00930000
C        0.00320000       0.00680000      -0.01200000
O        0.65700000      -0.47790000      -1.17200000
C        0.64200000      -1.87840000      -1.28190000
C        1.40630000      -2.24110000      -2.56540000
C        2.84270000      -1.69950000      -2.47650000
O        3.35520000      -1.00210000      -3.30480000
C        1.46220000      -3.68570000      -2.74960000
C        1.54590000      -4.87880000      -2.87000000
H        1.13110000       1.84910000      -0.00410000
H       -0.39610000       1.93550000      -0.89920000
H       -0.40920000       1.92880000       0.87690000
H        0.47820000      -0.41250000       0.89050000
H       -1.04800000      -0.32590000      -0.00800000
H        1.12990000      -2.35270000      -0.41350000
H       -0.38460000      -2.27240000      -1.33630000
H        0.92970000      -1.75440000      -3.42260000
H        3.38480000      -2.03400000      -1.56350000
H        1.60760000      -5.93160000      -2.99630000
