16
Properties=species:S:1:pos:R:3 gdb_124304=T pbc="F F F"
C       -0.30510000       1.52040000       0.21640000
C       -0.05870000       0.03490000       0.36690000
O        0.61450000      -0.41280000       1.27060000
C       -0.68830000      -0.84990000      -0.70430000
C       -0.77960000      -2.31050000      -0.39620000
N       -1.57160000      -3.17070000      -1.01880000
C       -1.27470000      -4.34910000      -0.40540000
N       -0.36070000      -4.27550000       0.54860000
N       -0.05110000      -2.95900000       0.53370000
H        0.33500000       2.07540000       0.90250000
H       -0.12940000       1.84590000      -0.81420000
H       -1.35510000       1.73910000       0.44430000
H       -1.68510000      -0.47890000      -0.96310000
H       -0.08830000      -0.69810000      -1.61520000
H       -1.74600000      -5.28440000      -0.66750000
H        0.59200000      -2.54090000       1.18910000
