19
Properties=species:S:1:pos:R:3 gdb_89237=T pbc="F F F"
C       -0.16320000       1.54300000      -0.00550000
C        0.01320000       0.02350000      -0.00300000
C        0.91180000      -0.52010000      -1.16170000
C        1.98010000      -1.23460000      -0.35820000
O        2.98190000      -1.86550000      -1.06190000
C        1.33400000      -1.92080000       0.89800000
O        2.56740000      -1.67200000       1.67040000
C        2.31310000      -0.41500000       0.93860000
C        0.78870000      -0.50650000       1.20920000
H        0.80540000       2.05450000       0.03360000
H       -0.67890000       1.87790000      -0.91130000
H       -0.75040000       1.87590000       0.85700000
H       -0.97680000      -0.44570000      -0.04060000
H        0.38390000      -1.20440000      -1.83210000
H        1.33710000       0.28140000      -1.77420000
H        3.56070000      -2.25950000      -0.39270000
H        0.85720000      -2.89660000       1.00150000
H        3.01140000       0.40840000       1.09260000
H        0.43370000      -0.30270000       2.21840000
