15
Properties=species:S:1:pos:R:3 gdb_2390=T pbc="F F F"
C       -0.04460000       1.34980000      -0.30220000
C        1.42770000       1.55860000       0.10030000
C        1.30010000       0.16580000       0.74480000
C        2.25740000      -1.00200000       0.44230000
O        2.64820000      -1.08940000       1.82810000
C        1.64810000      -0.12520000       2.21650000
O       -0.06740000       0.05070000       0.33200000
H       -0.76840000       2.03630000       0.15140000
H       -0.24320000       1.28060000      -1.37770000
H        2.13930000       1.62160000      -0.72510000
H        1.61560000       2.37520000       0.79980000
H        1.73360000      -1.90230000       0.09520000
H        3.10820000      -0.79130000      -0.21740000
H        2.07140000       0.70070000       2.80150000
H        0.81560000      -0.58130000       2.76820000
