19
Properties=species:S:1:pos:R:3 gdb_88487=T pbc="F F F"
C       -0.48570000       1.40360000      -0.12750000
C       -0.09400000      -0.04210000       0.06170000
N        1.30800000      -0.41950000      -0.18630000
C        0.76330000      -0.57250000       1.16250000
C        1.37850000       0.22450000       2.28730000
C        0.68370000       0.17310000       3.64410000
C        1.97750000      -0.55480000       3.45710000
C        2.05470000       1.45380000       1.95630000
N        2.60610000       2.44780000       1.74080000
H        0.30890000       2.08230000       0.18410000
H       -0.70000000       1.59900000      -1.18360000
H       -1.39030000       1.63430000       0.44580000
H       -0.84940000      -0.75000000      -0.28180000
H        1.38500000      -1.31400000      -0.66070000
H        0.51280000      -1.58030000       1.49510000
H        0.67990000       1.07720000       4.24040000
H       -0.23460000      -0.40250000       3.68390000
H        1.96080000      -1.63580000       3.37140000
H        2.86850000      -0.14920000       3.92030000
