22
Properties=species:S:1:pos:R:3 gdb_110510=T pbc="F F F"
C        0.08620000       1.54220000       0.08080000
C       -0.13970000       0.02920000      -0.02820000
C        0.63160000      -0.57930000      -1.19070000
N        2.13400000      -0.57520000      -1.09940000
C        2.49080000      -1.89920000      -0.46710000
C        1.22760000      -2.70160000      -0.16920000
C        0.66430000      -2.10020000      -1.48960000
C       -0.41470000      -2.79690000      -2.27570000
C        2.16980000      -1.82100000      -1.90960000
H        1.15140000       1.76390000       0.19300000
H       -0.26790000       2.06110000      -0.81680000
H       -0.44420000       1.96210000       0.94080000
H        0.15330000      -0.44910000       0.91220000
H       -1.20880000      -0.18190000      -0.16700000
H        0.38670000      -0.03610000      -2.11310000
H        3.45710000      -1.94400000       0.01770000
H        1.42470000      -3.77160000      -0.28420000
H        0.67700000      -2.53160000       0.76130000
H       -1.35330000      -2.82530000      -1.70950000
H       -0.61320000      -2.28280000      -3.22280000
H       -0.13870000      -3.83140000      -2.50730000
H        2.74780000      -1.94760000      -2.81600000
