18
Properties=species:S:1:pos:R:3 gdb_97250=T pbc="F F F"
C       -0.25250000       1.34880000      -0.77790000
N       -0.33390000      -0.09230000      -0.61390000
C       -1.14390000      -0.60620000       0.20600000
O       -1.98940000       0.09090000       1.00610000
C       -3.00090000      -0.71350000       1.63550000
O       -3.58530000      -1.58850000       0.73830000
C       -2.67750000      -2.58090000       0.24350000
C       -1.20410000      -2.11720000       0.33820000
O       -0.41870000      -2.74280000      -0.63270000
H        0.65210000       1.72360000      -0.28440000
H       -0.15700000       1.58010000      -1.84310000
H       -1.11580000       1.88470000      -0.36920000
H       -2.55350000      -1.23220000       2.49810000
H       -3.76600000      -0.01360000       1.97320000
H       -2.82250000      -3.52300000       0.78690000
H       -2.91880000      -2.73990000      -0.80990000
H       -0.82270000      -2.36610000       1.34360000
H        0.02510000      -2.00680000      -1.09320000
