17
Properties=species:S:1:pos:R:3 gdb_65878=T pbc="F F F"
O        0.34050000       1.49780000       0.19510000
C        0.04820000       0.15260000      -0.06360000
C       -1.48470000      -0.07300000      -0.27260000
C       -1.62120000      -1.30740000      -1.17150000
C       -0.30350000      -1.39100000      -1.95400000
O       -0.07050000      -2.15320000      -2.85410000
C        0.66580000      -0.35060000      -1.39120000
C        0.54050000      -0.69590000       1.09500000
O        1.06820000      -0.20920000       2.06530000
H        0.77400000       1.51610000       1.06350000
H       -2.02460000      -0.15190000       0.67470000
H       -1.84890000       0.82600000      -0.77850000
H       -1.72360000      -2.23590000      -0.59560000
H       -2.47170000      -1.27440000      -1.85710000
H        0.69750000       0.50510000      -2.07660000
H        1.68270000      -0.74460000      -1.31920000
H        0.38810000      -1.79160000       1.00880000
