21
Properties=species:S:1:pos:R:3 gdb_86895=T pbc="F F F"
C       -0.08860000       1.51900000      -0.09510000
C        0.09970000       0.01090000       0.10300000
C        0.73330000      -0.66270000      -1.13900000
C        2.23560000      -0.75490000      -0.78110000
O        2.39770000      -0.21750000       0.52690000
C        1.13420000      -0.34720000       1.19330000
C        1.16500000       0.48880000       2.45960000
C        2.78890000      -2.17950000      -0.81110000
O        2.36140000      -3.07140000      -1.49640000
H        0.86990000       2.01380000      -0.28400000
H       -0.73990000       1.71180000      -0.95340000
H       -0.54580000       1.99150000       0.77930000
H       -0.86660000      -0.44610000       0.33980000
H        0.34050000      -1.66710000      -1.31450000
H        0.56570000      -0.08270000      -2.04890000
H        2.87020000      -0.16450000      -1.45720000
H        0.98210000      -1.40550000       1.47030000
H        1.36930000       1.53870000       2.23650000
H        0.20690000       0.42110000       2.98420000
H        1.94800000       0.12560000       3.13090000
H        3.65290000      -2.32300000      -0.12400000
