16
Properties=species:S:1:pos:R:3 gdb_49110=T pbc="F F F"
O       -0.02210000       0.28350000       0.56250000
C        0.09650000       1.42110000       0.14710000
C        1.32180000       1.97250000      -0.41130000
C        1.53120000       3.31620000      -0.56590000
C        1.48630000       4.14480000       0.71270000
N        3.00210000       3.87650000       0.74670000
C        3.52470000       2.55040000       0.10010000
C        2.67160000       1.30670000      -0.18710000
C        3.01510000       3.65470000      -0.72090000
H       -0.76980000       2.11960000       0.13670000
H        1.38260000       5.22810000       0.61570000
H        0.89920000       3.76220000       1.54990000
H        4.57750000       2.46080000       0.34920000
H        2.56110000       0.60190000       0.64250000
H        3.12100000       0.75500000      -1.02350000
H        3.50660000       4.31480000      -1.42590000
