24
Properties=species:S:1:pos:R:3 gdb_5812=T pbc="F F F"
C       -0.04050000       1.53960000       0.01940000
C        0.00240000      -0.00420000       0.02330000
C        0.68960000      -0.47390000       1.32000000
C       -1.45360000      -0.51890000       0.02250000
C        0.75700000      -0.52420000      -1.25580000
C        2.19940000       0.00320000      -1.35880000
C        0.78130000      -2.06000000      -1.35650000
O       -0.00040000      -0.00490000      -2.36180000
H        0.95160000       1.97970000       0.15670000
H       -0.45620000       1.91650000      -0.91710000
H       -0.66770000       1.89550000       0.84340000
H        0.13750000      -0.09370000       2.18610000
H        0.71320000      -1.56450000       1.40510000
H        1.71580000      -0.10350000       1.40300000
H       -1.95600000      -0.26880000      -0.91390000
H       -1.50760000      -1.60260000       0.16260000
H       -2.01010000      -0.05950000       0.84620000
H        2.82670000      -0.34420000      -0.53320000
H        2.65660000      -0.36220000      -2.28620000
H        2.22490000       1.09390000      -1.38430000
H       -0.22790000      -2.47460000      -1.38070000
H        1.28560000      -2.35740000      -2.28380000
H        1.33090000      -2.52000000      -0.53060000
H        0.42740000      -0.29960000      -3.17210000
