20
Properties=species:S:1:pos:R:3 gdb_114136=T pbc="F F F"
O        0.05960000       1.34900000       0.42340000
C        0.11190000      -0.04870000       0.15750000
C       -1.27260000      -0.67740000       0.10290000
C       -2.22120000      -0.30170000      -1.10090000
C       -2.28770000      -1.79210000      -1.45700000
C       -3.45110000      -2.53230000      -2.03940000
O       -3.17010000      -3.92310000      -1.95320000
N       -0.89840000      -2.20830000      -1.74530000
C       -1.37910000      -2.14690000      -0.33500000
H       -0.33880000       1.77300000      -0.34320000
H        0.65160000      -0.26560000      -0.77360000
H        0.68570000      -0.48540000       0.98300000
H       -1.78830000      -0.50740000       1.05240000
H       -3.17440000       0.11580000      -0.76820000
H       -1.79700000       0.33450000      -1.88460000
H       -4.36790000      -2.27350000      -1.48550000
H       -3.60190000      -2.22160000      -3.08680000
H       -3.83850000      -4.40070000      -2.45200000
H       -0.96280000      -3.19080000      -2.01550000
H       -1.36010000      -3.03320000       0.28690000
