14
Properties=species:S:1:pos:R:3 gdb_2977=T pbc="F F F"
N       -0.24390000       1.61670000      -0.00460000
C        0.04330000       0.18040000      -0.06310000
C       -1.20600000      -0.56540000       0.17150000
N       -2.18150000      -1.16330000       0.32960000
C        0.70990000      -0.29870000      -1.35120000
C        2.19230000      -0.29820000      -1.43170000
N        1.44370000      -1.56560000      -1.39840000
H        0.61080000       2.12800000      -0.20650000
H       -0.91330000       1.86480000      -0.72790000
H        0.71620000      -0.05600000       0.77390000
H        0.12910000      -0.09110000      -2.24820000
H        2.68840000      -0.08280000      -2.37330000
H        2.74920000       0.00500000      -0.54730000
H        1.49250000      -1.98620000      -0.47270000
