17
Properties=species:S:1:pos:R:3 gdb_18494=T pbc="F F F"
N       -0.04720000       1.30330000       0.06600000
C       -0.03030000       0.04100000       0.04050000
O       -1.17070000      -0.64960000      -0.13790000
C       -1.11220000      -2.06530000       0.00220000
C       -1.55130000      -2.67470000       1.37570000
C       -2.63650000      -3.46280000       0.63260000
C       -3.56030000      -2.50620000      -0.05710000
C       -2.23340000      -2.81010000      -0.69980000
H        0.89980000       1.65850000       0.18080000
H        0.85860000      -0.59950000       0.13900000
H       -0.12100000      -2.42280000      -0.29870000
H       -0.76960000      -3.29070000       1.82540000
H       -1.91030000      -1.95230000       2.11460000
H       -2.89650000      -4.49710000       0.81550000
H       -4.41210000      -2.95300000      -0.55900000
H       -3.75090000      -1.52300000       0.36360000
H       -2.16360000      -3.24300000      -1.68980000
