17
Properties=species:S:1:pos:R:3 gdb_82253=T pbc="F F F"
O       -0.09060000       1.42670000      -0.15810000
C       -0.02030000       0.03290000       0.01060000
C       -1.38020000      -0.66130000       0.05640000
O       -2.12490000      -0.49980000      -1.15680000
C       -1.43930000      -1.74070000      -0.94420000
C       -0.12750000      -1.82150000      -1.70930000
C       -0.08410000      -1.03560000      -3.03990000
O        0.58820000       0.08120000      -2.40520000
C        0.73000000      -0.65260000      -1.16700000
H       -0.24030000       1.55940000      -1.10540000
H        0.50760000      -0.15360000       0.95360000
H       -1.97280000      -0.65560000       0.96820000
H       -2.07950000      -2.61280000      -0.83710000
H        0.30170000      -2.82370000      -1.71170000
H        0.54720000      -1.48530000      -3.81420000
H       -1.04960000      -0.74430000      -3.46070000
H        1.78380000      -0.84510000      -0.94180000
