23
Properties=species:S:1:pos:R:3 gdb_39260=T pbc="F F F"
C       -0.02110000       1.46850000      -0.01400000
C        1.32840000       0.77360000      -0.01760000
C        2.22710000       0.46370000      -1.20050000
C        2.37300000      -1.08530000      -1.30900000
C        1.03700000      -1.84020000      -1.01200000
C        0.81770000      -2.20510000       0.49950000
C       -0.06030000      -1.05410000       1.10770000
C        0.04250000      -0.02750000      -0.00240000
C       -0.12780000      -0.86430000      -1.26520000
H       -0.29330000       2.00250000       0.89120000
H       -0.37620000       1.94410000      -0.92440000
H        1.84580000       0.81060000       0.93890000
H        1.80270000       0.86420000      -2.12690000
H        3.21210000       0.92930000      -1.09540000
H        2.72900000      -1.34520000      -2.31290000
H        3.14790000      -1.42830000      -0.61270000
H        0.99300000      -2.74250000      -1.62810000
H        0.31330000      -3.17180000       0.59030000
H        1.77320000      -2.29620000       1.02500000
H       -1.09110000      -1.39230000       1.26940000
H        0.32230000      -0.69170000       2.06570000
H       -0.04590000      -0.30680000      -2.20040000
H       -1.09720000      -1.37650000      -1.26780000
