19
Properties=species:S:1:pos:R:3 gdb_55918=T pbc="F F F"
C       -0.12480000       1.51340000      -0.09290000
C       -0.16020000       0.00050000       0.03490000
O       -0.39390000      -0.54640000       1.08960000
C        0.11500000      -0.79100000      -1.23660000
C        0.01890000      -2.29650000      -1.04820000
C       -1.39630000      -2.92990000      -0.76900000
C       -1.23210000      -3.74710000      -2.05490000
O       -1.04920000      -2.81210000      -3.12910000
C        0.08710000      -3.15480000      -2.32540000
H        0.84400000       1.84360000      -0.48420000
H       -0.88520000       1.85060000      -0.80650000
H       -0.30580000       1.97310000       0.87940000
H       -0.58500000      -0.46670000      -2.01740000
H        1.11200000      -0.50410000      -1.60260000
H        0.73490000      -2.63700000      -0.29640000
H       -1.40660000      -3.53060000       0.14190000
H       -2.24920000      -2.24700000      -0.76200000
H       -1.63540000      -4.71900000      -2.31480000
H        0.95510000      -3.54930000      -2.84230000
