25
Properties=species:S:1:pos:R:3 gdb_60415=T pbc="F F F"
C        0.02710000       1.56820000      -0.02300000
C        0.02850000       0.04280000       0.08350000
O        0.66950000      -0.38620000       1.28500000
C       -1.37860000      -0.55440000      -0.05000000
C       -1.39950000      -2.08670000      -0.01880000
C       -2.80010000      -2.67720000      -0.09720000
C       -3.61310000      -2.55610000      -1.42110000
C       -4.13770000      -3.99820000      -1.18700000
C       -2.96340000      -4.22100000      -0.19670000
H        1.04150000       1.95900000       0.09430000
H       -0.36490000       1.89930000      -0.99030000
H       -0.60270000       2.01120000       0.75930000
H        0.66030000      -0.36820000      -0.71470000
H        0.17530000      -0.01340000       2.02400000
H       -2.00560000      -0.15810000       0.76400000
H       -1.82970000      -0.19150000      -0.98300000
H       -0.79980000      -2.47300000      -0.85560000
H       -0.90030000      -2.42830000       0.89570000
H       -3.40630000      -2.29930000       0.73640000
H       -4.34730000      -1.75080000      -1.50540000
H       -2.94530000      -2.50790000      -2.28870000
H       -5.10440000      -3.99850000      -0.67480000
H       -4.20680000      -4.66100000      -2.05280000
H       -2.09940000      -4.67600000      -0.69290000
H       -3.16390000      -4.77530000       0.72390000
