18
Properties=species:S:1:pos:R:3 gdb_35580=T pbc="F F F"
N        0.24510000      -1.18530000       0.08790000
C        0.16650000      -0.03300000       0.05270000
C        0.05280000       1.42420000      -0.00710000
N       -0.22780000       2.08640000       1.28400000
C        0.82080000       3.11500000       1.05730000
C        1.93410000       3.08770000       2.10340000
C        2.68370000       1.77930000       1.76090000
N        2.59510000       1.62240000       0.29450000
C        1.37380000       2.26770000      -0.14040000
H       -0.65030000       1.67840000      -0.81200000
H       -1.17530000       2.42510000       1.39740000
H        0.44660000       4.11620000       0.82240000
H        2.58840000       3.95760000       1.96820000
H        1.54390000       3.10240000       3.12450000
H        3.72880000       1.77520000       2.07850000
H        2.18590000       0.93060000       2.23980000
H        3.39010000       2.05590000      -0.15790000
H        1.49280000       2.73680000      -1.11620000
