19
Properties=species:S:1:pos:R:3 gdb_77242=T pbc="F F F"
C       -0.00180000       1.45520000       0.41200000
C        0.05230000      -0.03030000       0.12320000
C       -1.22160000      -0.63430000      -0.43590000
C        1.36990000      -0.62310000      -0.35470000
O        2.49440000       0.18630000      -0.48290000
C        0.87040000      -0.93940000       1.03040000
O        1.68610000      -0.38560000       2.04670000
C        1.08380000      -0.05030000       3.21330000
O        1.68950000       0.40180000       4.13500000
H        0.97610000       1.85050000       0.68910000
H       -0.33320000       1.99440000      -0.48160000
H       -0.71210000       1.67960000       1.21620000
H       -1.49110000      -0.15490000      -1.38350000
H       -1.11270000      -1.70690000      -0.62740000
H       -2.06040000      -0.50360000       0.25760000
H        1.32800000      -1.41500000      -1.09990000
H        2.95400000       0.19060000       0.36570000
H        0.50910000      -1.93660000       1.26640000
H       -0.00280000      -0.25170000       3.20090000
