20
Properties=species:S:1:pos:R:3 gdb_22191=T pbc="F F F"
C       -0.11910000       1.57210000       0.01180000
C        0.00620000       0.04630000       0.00250000
C       -1.36020000      -0.64350000       0.01150000
C       -1.32720000      -2.15740000       0.00310000
N       -0.17920000      -2.73670000      -0.01100000
O       -0.28100000      -4.12570000      -0.01740000
C       -2.57540000      -2.84420000       0.01140000
C       -3.66220000      -3.36850000       0.01900000
C       -4.95920000      -4.02410000       0.02790000
H        0.86600000       2.04870000       0.00520000
H       -0.66840000       1.93400000      -0.86490000
H       -0.65200000       1.92460000       0.90220000
H        0.57030000      -0.27990000      -0.87760000
H        0.58650000      -0.28920000       0.86840000
H       -1.93780000      -0.32510000       0.89060000
H       -1.95390000      -0.31580000      -0.85330000
H        0.64370000      -4.39630000      -0.02770000
H       -4.85240000      -5.11400000       0.02180000
H       -5.53520000      -3.74830000       0.91840000
H       -5.55160000      -3.73990000      -0.84910000
