25
Properties=species:S:1:pos:R:3 gdb_96354=T pbc="F F F"
C       -0.06400000       1.52640000      -0.14300000
C        0.05860000       0.01440000       0.00700000
O        0.70780000      -0.44670000      -1.17540000
C        0.70280000      -1.85720000      -1.30090000
C        1.44270000      -2.52410000      -0.14230000
C        0.86480000      -2.03070000       1.18960000
C        0.79720000      -0.48450000       1.28340000
C        2.21440000       0.11300000       1.36890000
C        0.00060000      -0.11130000       2.54420000
H        0.92060000       1.99430000      -0.22400000
H       -0.62000000       1.75660000      -1.05560000
H       -0.59400000       1.96940000       0.70370000
H       -0.95920000      -0.41790000       0.03670000
H       -0.33790000      -2.22600000      -1.34090000
H        1.17340000      -2.08130000      -2.26300000
H        1.35310000      -3.61400000      -0.22100000
H        2.50980000      -2.28490000      -0.21070000
H       -0.15350000      -2.42920000       1.30150000
H        1.44500000      -2.42390000       2.03300000
H        2.75530000      -0.00420000       0.42680000
H        2.18320000       1.18140000       1.60330000
H        2.79210000      -0.37800000       2.15980000
H        0.45310000      -0.56990000       3.43070000
H       -0.02150000       0.96990000       2.71110000
H       -1.03510000      -0.46540000       2.48270000
