16
Properties=species:S:1:pos:R:3 gdb_131174=T pbc="F F F"
O        0.34490000       1.35930000      -0.00280000
C        0.15190000       0.02370000      -0.03150000
C       -0.08340000      -0.75540000      -1.14640000
N       -0.19860000      -1.99840000      -0.59560000
N       -0.04750000      -1.98920000       0.73790000
N        0.16720000      -0.74390000       1.08110000
C       -0.19300000      -0.40780000      -2.56880000
C        0.31660000      -1.32760000      -3.66190000
C       -1.16240000      -1.11570000      -3.49610000
H        0.48250000       1.60000000       0.92180000
H       -0.37500000      -2.87650000      -1.05630000
H       -0.05980000       0.65470000      -2.73760000
H        0.81450000      -0.87390000      -4.51130000
H        0.73890000      -2.28090000      -3.36130000
H       -1.75680000      -1.92340000      -3.08140000
H       -1.68700000      -0.51560000      -4.23080000
