13
Properties=species:S:1:pos:R:3 gdb_48032=T pbc="F F F"
O        0.01490000      -0.09150000      -0.39380000
C        0.06550000       1.03230000       0.04910000
C        1.19790000       1.91380000      -0.09490000
C        2.12750000       2.67560000      -0.19710000
C        3.24660000       3.58660000      -0.32290000
C        3.02520000       4.94550000       0.33940000
O        2.03040000       5.28330000       0.92620000
C        4.19570000       5.93220000       0.22210000
O        5.22060000       5.66780000      -0.34780000
H       -0.78060000       1.47390000       0.61270000
H        4.16230000       3.15040000       0.09970000
H        3.49830000       3.76220000      -1.37790000
H        3.99350000       6.90460000       0.71560000
