15
Properties=species:S:1:pos:R:3 gdb_14614=T pbc="F F F"
O       -0.17220000       0.00490000      -0.09320000
C        0.00810000       1.19230000      -0.03530000
C        1.34950000       1.87130000      -0.21390000
C        1.31000000       2.92810000      -1.31470000
O        2.51570000       3.66850000      -1.24660000
C        2.59750000       4.65620000      -2.24460000
C        3.86120000       5.38390000      -2.09860000
N        4.84770000       5.97610000      -2.00840000
H       -0.83710000       1.89110000       0.16910000
H        1.59760000       2.38050000       0.72740000
H        2.11430000       1.11830000      -0.41460000
H        1.20610000       2.45380000      -2.30360000
H        0.44420000       3.59840000      -1.17850000
H        2.55850000       4.21690000      -3.25480000
H        1.76660000       5.37690000      -2.17130000
