14
Properties=species:S:1:pos:R:3 gdb_132912=T pbc="F F F"
N        0.03150000       1.39140000       0.14450000
C       -0.04240000       0.02600000       0.05250000
C       -1.19090000      -0.70590000       0.03320000
C       -1.18950000      -2.14600000      -0.00310000
N       -2.23660000      -2.86680000      -0.01770000
O        0.07680000      -2.76850000      -0.02450000
C        1.21210000      -2.04190000      -0.01920000
C        1.20470000      -0.70510000       0.01920000
F        2.34630000       0.00270000       0.01380000
H        0.90390000       1.81750000      -0.12250000
H       -0.79480000       1.92020000      -0.08210000
H       -2.16550000      -0.23560000       0.05220000
H       -1.99320000      -3.85610000      -0.04510000
H        2.11270000      -2.64100000      -0.05050000
