19
Properties=species:S:1:pos:R:3 gdb_89330=T pbc="F F F"
C       -0.04930000       1.57400000       0.09440000
C        0.01940000       0.06140000      -0.04570000
C        1.11390000      -0.56150000      -0.98720000
C        1.68540000      -1.31540000       0.22430000
C        2.40220000      -2.62400000       0.26490000
O        2.04580000      -0.31460000       1.18400000
C        0.66030000      -0.72150000       1.12530000
C        0.03470000      -1.20890000       2.30560000
C       -0.53980000      -1.61290000       3.28260000
H        0.92730000       1.97310000       0.38190000
H       -0.34680000       2.04020000      -0.85080000
H       -0.77860000       1.86680000       0.85700000
H       -0.96350000      -0.35850000      -0.27870000
H        0.69200000      -1.21660000      -1.75320000
H        1.81090000       0.14200000      -1.45010000
H        3.40920000      -2.52480000      -0.15620000
H        2.49330000      -2.97430000       1.29610000
H        1.86520000      -3.37760000      -0.31960000
H       -1.03600000      -1.96990000       4.15100000
