19
Properties=species:S:1:pos:R:3 gdb_99979=T pbc="F F F"
C       -0.03740000       1.57500000      -0.04220000
C       -0.01410000       0.04020000      -0.02350000
O        0.68490000      -0.43720000       1.12000000
C       -1.44470000      -0.52320000       0.00770000
O       -1.98910000      -0.14520000       1.27060000
C        0.77770000      -0.50320000      -1.24100000
N        2.15570000      -0.01790000      -1.18010000
C        0.70070000      -1.98110000      -1.31510000
N        0.68330000      -3.13310000      -1.41480000
H        0.98000000       1.96390000      -0.00950000
H       -0.52740000       1.95250000      -0.94610000
H       -0.59600000       1.93780000       0.82380000
H        0.05490000      -0.38640000       1.85080000
H       -2.03910000      -0.10950000      -0.82010000
H       -1.41550000      -1.61440000      -0.09080000
H       -2.72660000      -0.72700000       1.47250000
H        0.31320000      -0.11080000      -2.15370000
H        2.56560000      -0.33110000      -0.30440000
H        2.70240000      -0.42110000      -1.93400000
