14
Properties=species:S:1:pos:R:3 gdb_51440=T pbc="F F F"
N       -0.06520000       1.23840000       0.09230000
C       -0.17520000       0.01950000      -0.20410000
O       -1.06380000      -0.75010000       0.47750000
C       -1.05850000      -2.11870000       0.16620000
C       -2.25140000      -2.90790000       0.69730000
O       -3.39870000      -2.44220000       0.00580000
C       -2.59750000      -3.45230000      -0.64480000
C       -1.46880000      -2.64050000      -1.26650000
O       -0.99490000      -2.51240000      -2.35320000
H        0.62570000       1.68140000      -0.50990000
H        0.36880000      -0.52500000      -0.98450000
H       -0.10190000      -2.59310000       0.43460000
H       -2.38410000      -3.37340000       1.66540000
H       -3.07670000      -4.37890000      -0.93370000
