15
Properties=species:S:1:pos:R:3 gdb_40490=T pbc="F F F"
C       -0.50130000       1.20230000      -0.35090000
O        0.63970000       1.52430000       0.44650000
C        0.32490000       0.14540000       0.24720000
C       -0.13770000      -0.60200000       1.43880000
O       -1.26080000      -0.11860000       2.22850000
C       -0.89140000      -1.34200000       2.92510000
C       -0.50470000      -2.11790000       1.62760000
O        0.81430000      -2.49750000       2.10340000
C        0.63840000      -1.17290000       2.68030000
H       -1.46270000       1.43440000       0.10110000
H       -0.40690000       1.41480000      -1.41460000
H        1.03120000      -0.40350000      -0.37580000
H       -1.45650000      -1.64030000       3.80650000
H       -1.06740000      -2.80760000       0.99910000
H        1.43010000      -0.74320000       3.29210000
