19
Properties=species:S:1:pos:R:3 gdb_105014=T pbc="F F F"
C       -1.51620000      -1.12130000      -0.13540000
O       -0.33870000      -0.32470000      -0.14800000
C        0.64320000      -0.70270000      -1.06950000
C        2.01020000      -0.98410000      -0.51940000
C        1.16790000      -2.11530000      -1.06920000
C        0.55310000       0.05840000      -2.39330000
O       -0.72100000      -0.09830000      -3.01550000
C        0.88090000       1.47730000      -2.21660000
C        1.11590000       2.64690000      -2.07110000
H       -1.91840000      -1.27410000      -1.14180000
H       -1.33900000      -2.10380000       0.32320000
H       -2.24570000      -0.58250000       0.47470000
H        2.87420000      -0.64820000      -1.08300000
H        2.11370000      -0.91530000       0.55690000
H        0.74200000      -2.81110000      -0.35590000
H        1.44270000      -2.56180000      -2.01900000
H        1.27460000      -0.38860000      -3.08840000
H       -1.31480000       0.53130000      -2.59220000
H        1.33270000       3.67870000      -1.94220000
