16
Properties=species:S:1:pos:R:3 gdb_17048=T pbc="F F F"
C        0.17530000       1.28520000       0.15820000
O       -0.31000000       0.02150000      -0.25100000
C        0.45150000      -0.55810000      -1.26410000
C        1.78760000      -1.31520000      -0.87040000
C        0.84560000      -2.38330000      -0.20410000
C        0.10780000      -2.04940000      -1.55470000
C        1.52230000      -2.11140000      -2.15040000
O        2.10500000      -2.57330000      -3.08210000
H        1.17290000       1.21170000       0.61420000
H        0.22920000       1.98780000      -0.68670000
H       -0.52700000       1.67400000       0.89850000
H        0.52280000       0.11270000      -2.13070000
H        2.71930000      -0.90390000      -0.48960000
H        1.24130000      -3.39260000      -0.08760000
H        0.32460000      -2.03000000       0.68250000
H       -0.83010000      -2.45200000      -1.92850000
