18
Properties=species:S:1:pos:R:3 gdb_68380=T pbc="F F F"
O       -0.14010000       1.41290000      -0.12560000
C        0.00630000       0.03300000       0.05190000
C        0.15480000      -0.57460000       1.48330000
C       -0.62030000      -1.77680000       0.89600000
C       -1.29080000      -0.79660000      -0.09480000
O        0.27180000      -2.66800000       0.20700000
C        1.15950000      -2.10310000      -0.66590000
N        2.00690000      -2.79240000      -1.30260000
C        1.07890000      -0.59120000      -0.84410000
H        0.73280000       1.82140000      -0.11640000
H        1.15450000      -0.76330000       1.88340000
H       -0.45050000      -0.02360000       2.20640000
H       -1.22920000      -2.40720000       1.54080000
H       -2.13680000      -0.28190000       0.36580000
H       -1.56550000      -1.17440000      -1.08240000
H        1.91060000      -3.78050000      -1.06020000
H        0.86720000      -0.37110000      -1.89540000
H        2.06690000      -0.17040000      -0.62120000
