16
Properties=species:S:1:pos:R:3 gdb_1863=T pbc="F F F"
C       -0.26030000       1.52570000      -0.02510000
C        0.07890000       0.04490000       0.03390000
C        0.94910000      -0.47770000      -1.14360000
N        2.20900000      -0.91570000      -0.52990000
C        2.08220000      -0.73320000       0.72120000
C        3.10220000      -1.03370000       1.76590000
O        0.91400000      -0.21460000       1.19410000
H        0.64840000       2.12300000      -0.15230000
H       -0.92370000       1.72510000      -0.87320000
H       -0.76400000       1.85050000       0.88950000
H       -0.83320000      -0.54680000       0.16430000
H        0.47990000      -1.31410000      -1.67300000
H        1.14330000       0.30600000      -1.88580000
H        3.99430000      -1.44910000       1.29860000
H        3.36350000      -0.12310000       2.31430000
H        2.70100000      -1.74650000       2.49320000
