19
Properties=species:S:1:pos:R:3 gdb_63244=T pbc="F F F"
C       -0.79840000       1.33410000       0.07740000
C        0.10200000       0.10840000       0.01850000
O       -0.67720000      -1.10340000       0.08720000
C        1.01320000       0.09610000      -1.19390000
C        2.00620000      -0.79130000      -1.27690000
C        2.27880000      -1.77390000      -0.16610000
C        1.99950000      -1.17100000       1.23020000
C        1.03540000       0.01110000       1.24250000
O        1.02220000       0.82480000       2.13280000
H       -0.20560000       2.25270000       0.09880000
H       -1.45180000       1.36000000      -0.80140000
H       -1.41580000       1.30520000       0.97660000
H       -0.95940000      -1.31400000      -0.80950000
H        0.82380000       0.81850000      -1.98310000
H        2.63300000      -0.83280000      -2.16390000
H        1.65500000      -2.66210000      -0.32260000
H        3.31590000      -2.11950000      -0.21390000
H        1.58880000      -1.93050000       1.90420000
H        2.92330000      -0.81530000       1.69480000
