13
Properties=species:S:1:pos:R:3 gdb_49357=T pbc="F F F"
O        0.26260000       0.22470000       0.59970000
C        0.23350000       1.37420000       0.25610000
N        1.25990000       2.00600000      -0.45350000
C        1.92060000       3.24740000      -0.08510000
C        1.66290000       3.87150000       1.18080000
C        1.43330000       4.41120000       2.22920000
C        2.66880000       1.91160000      -0.15730000
C        3.14070000       1.29250000       1.05850000
N        3.57650000       0.80760000       2.01220000
H       -0.63380000       2.04520000       0.38620000
H        2.08650000       3.92750000      -0.91810000
H        1.23930000       4.87680000       3.16470000
H        3.31230000       1.74280000      -1.01720000
