18
Properties=species:S:1:pos:R:3 gdb_81574=T pbc="F F F"
N       -0.08220000       1.39290000       0.02980000
C        0.10270000       0.04000000      -0.05680000
O        1.21560000      -0.45270000      -0.11200000
C       -1.19350000      -0.74780000      -0.07970000
C       -1.82980000      -1.18040000      -1.45220000
C       -0.70440000      -2.24300000      -1.58200000
C       -1.15670000      -2.30610000      -0.09110000
C       -2.60650000      -2.26520000      -0.63450000
O       -3.59880000      -1.88720000       0.28570000
H        0.73180000       1.98170000       0.09400000
H       -0.98940000       1.80370000       0.16040000
H       -1.92010000      -0.31840000       0.61330000
H       -2.22020000      -0.51960000      -2.22880000
H       -0.93720000      -3.11840000      -2.19580000
H        0.30410000      -1.87840000      -1.75280000
H       -0.76630000      -2.95150000       0.69480000
H       -2.91090000      -3.14580000      -1.21500000
H       -4.42360000      -1.76780000      -0.19480000
