21
Properties=species:S:1:pos:R:3 gdb_118711=T pbc="F F F"
C        2.24780000       1.24700000      -1.43550000
O        2.02270000      -0.14000000      -1.48260000
C        0.70840000      -0.49500000      -1.10350000
C        0.61870000      -2.01480000      -1.04320000
O        1.07930000      -2.35170000       0.24790000
C       -0.66700000      -2.72900000      -1.61180000
C       -0.14020000      -2.38540000      -3.03760000
C        1.11030000      -2.87410000      -2.25380000
C        0.19090000      -4.02410000      -1.72250000
H        1.57340000       1.79670000      -2.11280000
H        2.11130000       1.64960000      -0.41920000
H        3.27990000       1.42290000      -1.74910000
H        0.47540000      -0.10610000      -0.10040000
H       -0.02230000      -0.06040000      -1.80040000
H        1.39190000      -3.26000000       0.25120000
H       -1.69100000      -2.64720000      -1.24350000
H       -0.48110000      -3.05390000      -3.83080000
H       -0.16070000      -1.34810000      -3.36890000
H        2.13310000      -2.95420000      -2.62250000
H        0.46090000      -4.53900000      -0.79730000
H       -0.13480000      -4.75200000      -2.46930000
