19
Properties=species:S:1:pos:R:3 gdb_79334=T pbc="F F F"
C       -0.03110000       1.49540000       0.03110000
C        0.04810000      -0.00390000      -0.03220000
C        1.17080000      -0.75430000      -0.74810000
C        0.69520000      -2.16280000      -0.34990000
O        0.52040000      -2.07350000       1.07200000
C       -0.30910000      -0.92050000       1.11460000
C       -1.18800000      -0.91200000      -0.11450000
C       -0.77790000      -2.16890000      -0.85800000
O       -0.92850000      -2.01440000      -2.25680000
H        0.87960000       1.92180000       0.46750000
H       -0.15900000       1.93040000      -0.96660000
H       -0.87720000       1.82400000       0.64380000
H        1.16300000      -0.60680000      -1.83000000
H        2.16000000      -0.52340000      -0.34150000
H        1.32260000      -3.01810000      -0.59620000
H       -0.60350000      -0.61060000       2.10770000
H       -2.19970000      -0.52920000      -0.12190000
H       -1.31150000      -3.05630000      -0.49010000
H       -0.69820000      -2.85050000      -2.67460000
