17
Properties=species:S:1:pos:R:3 gdb_28585=T pbc="F F F"
N        0.12770000       1.41870000      -0.12490000
C       -0.02510000       0.02000000      -0.03130000
C       -1.12200000      -0.80260000       0.10930000
C       -0.64120000      -2.13820000       0.22550000
C        0.73210000      -2.09860000       0.14420000
N        1.09440000      -0.77510000      -0.01380000
C        1.73750000      -3.17360000       0.19750000
C        1.76490000      -4.19560000       1.26380000
O        1.26740000      -4.50370000      -0.03750000
H        0.31230000       1.72500000      -1.07640000
H       -0.71290000       1.88850000       0.18830000
H       -2.15280000      -0.48200000       0.10040000
H       -1.22940000      -3.03810000       0.31440000
H        2.03240000      -0.41220000       0.00800000
H        2.68840000      -2.94350000      -0.28940000
H        2.70370000      -4.67990000       1.53340000
H        1.01410000      -4.14510000       2.05050000
