19
Properties=species:S:1:pos:R:3 gdb_15877=T pbc="F F F"
C       -0.21000000       1.48390000       0.09540000
C       -0.04320000      -0.02980000       0.15690000
C        0.96130000      -0.63000000      -0.86240000
N        1.97410000      -0.70360000       0.20570000
C        2.87900000      -1.83120000       0.23800000
C        0.94620000      -0.58360000       1.24740000
C        1.30080000       0.32000000       2.40750000
O        0.67000000       0.38180000       3.43210000
H        0.75930000       1.98910000       0.03520000
H       -0.78960000       1.76600000      -0.78980000
H       -0.73840000       1.86280000       0.97600000
H       -1.01810000      -0.51920000       0.17850000
H        0.64290000      -1.61910000      -1.23000000
H        1.24380000      -0.00880000      -1.72050000
H        3.54160000      -1.79940000      -0.63320000
H        3.50460000      -1.78270000       1.13570000
H        2.35680000      -2.80660000       0.23660000
H        0.58330000      -1.54480000       1.64740000
H        2.19650000       0.95700000       2.22440000
