15
Properties=species:S:1:pos:R:3 gdb_3164=T pbc="F F F"
O        0.01630000       1.28800000      -0.32610000
C        0.05380000      -0.06830000       0.04060000
C       -0.00060000      -0.42880000       1.54740000
O       -1.19580000      -1.21860000       1.34530000
C       -1.30240000      -0.75670000      -0.00290000
C       -2.57130000      -0.22300000      -0.57770000
C       -1.97940000      -1.53630000      -1.07560000
H        0.91950000       1.60730000      -0.41250000
H        0.83580000      -0.61200000      -0.50490000
H        0.81930000      -1.02860000       1.95650000
H       -0.18510000       0.44610000       2.18280000
H       -3.45540000      -0.28070000       0.04790000
H       -2.50700000       0.65410000      -1.21200000
H       -1.52570000      -1.56600000      -2.06140000
H       -2.47620000      -2.45270000      -0.77520000
