21
Properties=species:S:1:pos:R:3 gdb_101106=T pbc="F F F"
C       -0.03380000       1.36960000      -0.07570000
O       -0.02020000      -0.02010000       0.15740000
C       -1.29210000      -0.64610000       0.07830000
C       -1.80120000      -0.80420000      -1.35560000
C       -1.12180000      -1.98180000       0.75730000
C       -0.33700000      -3.24430000       0.30650000
C       -1.21760000      -3.59220000       1.52810000
C       -0.75760000      -2.29470000       2.23020000
O       -2.33290000      -2.83120000       0.90900000
H        0.97780000       1.73600000       0.11610000
H       -0.30500000       1.62280000      -1.11050000
H       -0.73230000       1.88730000       0.60050000
H       -2.02710000      -0.06940000       0.66580000
H       -1.04680000      -1.30540000      -1.96950000
H       -2.71190000      -1.40920000      -1.35690000
H       -2.03200000       0.16320000      -1.80940000
H       -0.66240000      -3.68330000      -0.63710000
H        0.74790000      -3.24360000       0.43200000
H       -1.45700000      -4.56560000       1.95500000
H        0.28940000      -2.20830000       2.52740000
H       -1.45250000      -1.89790000       2.97170000
