15
Properties=species:S:1:pos:R:3 gdb_29204=T pbc="F F F"
C       -0.03280000       1.54850000      -0.01680000
C       -0.00870000       0.04690000      -0.00580000
C       -0.03340000      -0.69510000      -1.13230000
O       -0.01300000      -2.02200000      -1.15430000
C        0.03910000      -2.76750000       0.08620000
O        0.05420000      -3.95650000      -0.03670000
N        0.06500000      -2.04910000       1.23670000
C        0.04320000      -0.73520000       1.21180000
N        0.07190000      -0.09930000       2.40250000
H        0.86140000       1.97660000       0.45370000
H       -0.07220000       1.92560000      -1.04220000
H       -0.90770000       1.94860000       0.51120000
H       -0.07260000      -0.26260000      -2.12880000
H        0.10830000      -0.66090000       3.23710000
H        0.05900000       0.90060000       2.47680000
