19
Properties=species:S:1:pos:R:3 gdb_94839=T pbc="F F F"
C        0.05970000       1.49190000       0.00910000
C        0.02680000      -0.01990000       0.00140000
O        0.65910000      -0.47080000      -1.17590000
C        0.65750000      -1.88680000      -1.27330000
C        1.25680000      -2.50900000      -0.02900000
C        1.81070000      -3.86460000      -0.04400000
O        2.67260000      -2.72480000      -0.04980000
C        0.69240000      -1.90020000       1.23810000
O        0.69150000      -0.48330000       1.15590000
H        1.09800000       1.83130000      -0.00350000
H       -0.45390000       1.88050000      -0.87290000
H       -0.42920000       1.87100000       0.90910000
H       -1.01380000      -0.40470000       0.01380000
H       -0.37370000      -2.25690000      -1.40930000
H        1.24690000      -2.15060000      -2.15430000
H        1.81760000      -4.45620000       0.87150000
H        1.79210000      -4.44630000      -0.96550000
H       -0.33470000      -2.27200000       1.39860000
H        1.30590000      -2.17340000       2.09950000
