15
Properties=species:S:1:pos:R:3 gdb_15957=T pbc="F F F"
C       -0.09620000      -1.16330000      -0.39460000
C       -0.03360000       0.00430000      -0.11450000
C        0.05520000       1.42080000       0.19170000
O        0.05480000       1.72570000       1.60970000
C        1.28620000       2.48500000       1.51850000
C        1.42620000       2.11150000       0.05020000
C        2.58450000       1.68840000      -0.75320000
N        1.89520000       2.97290000      -1.01510000
H       -0.15810000      -2.19720000      -0.63030000
H       -0.75260000       1.96630000      -0.31930000
H        1.12810000       3.55430000       1.70370000
H        2.05320000       2.09980000       2.19950000
H        3.59030000       1.78510000      -0.35350000
H        2.44020000       0.86040000      -1.44240000
H        1.29470000       2.89660000      -1.83330000
