13
Properties=species:S:1:pos:R:3 gdb_43235=T pbc="F F F"
O        0.06860000      -0.01630000      -0.07190000
C        0.01210000       1.18540000      -0.00540000
C       -1.22400000       2.02180000       0.09150000
C       -0.90700000       3.32820000       0.01430000
C       -1.81170000       4.42110000       0.04550000
N       -2.52260000       5.33550000       0.05380000
C        0.58740000       3.51970000      -0.05840000
N        1.23890000       3.00700000       1.16870000
C        1.17460000       2.16380000      -0.05980000
H       -2.21310000       1.60100000       0.21040000
H        1.01030000       4.35930000      -0.59560000
H        2.18010000       3.39460000       1.23710000
H        2.08230000       1.89690000      -0.58640000
