20
Properties=species:S:1:pos:R:3 gdb_92262=T pbc="F F F"
C        0.45750000       1.29330000      -0.13150000
C        0.08400000      -0.15630000      -0.10110000
C       -0.27520000      -0.94650000      -1.11730000
C       -0.66920000      -2.32790000      -0.64340000
N       -0.33980000      -2.33580000       0.79330000
C        1.03900000      -2.78280000       1.12370000
C        1.33820000      -1.42790000       1.81300000
O        2.53050000      -0.76040000       1.48600000
C       -0.00710000      -0.93140000       1.19260000
H        1.43290000       1.45700000       0.33970000
H        0.48840000       1.68420000      -1.15210000
H       -0.26500000       1.89100000       0.43910000
H       -0.34090000      -0.63700000      -2.15530000
H       -1.74080000      -2.51510000      -0.80960000
H       -0.13170000      -3.13630000      -1.15810000
H        1.08200000      -3.68280000       1.74550000
H        1.67730000      -2.93920000       0.24070000
H        1.31040000      -1.47380000       2.90350000
H        2.59990000      -0.74460000       0.52440000
H       -0.70760000      -0.46770000       1.90080000
