21
Properties=species:S:1:pos:R:3 gdb_108492=T pbc="F F F"
C       -0.24630000       1.59140000      -0.04520000
C        0.00610000       0.07950000       0.00210000
C        0.78400000      -0.45360000      -1.19950000
C        0.04220000      -0.48850000      -2.56450000
O        0.36400000      -1.88070000      -2.74990000
C        0.91000000      -1.99250000      -1.41560000
C        2.39930000      -2.36160000      -1.41190000
C        3.07810000      -1.01070000      -1.42360000
C        2.21940000       0.00250000      -1.30460000
H        0.69020000       2.15790000      -0.03710000
H       -0.79880000       1.87520000      -0.94780000
H       -0.83530000       1.91620000       0.81780000
H        0.54990000      -0.17390000       0.92110000
H       -0.95630000      -0.44520000       0.05700000
H       -1.04310000      -0.32780000      -2.49030000
H        0.44540000       0.13820000      -3.36830000
H        0.28820000      -2.63990000      -0.78570000
H        2.68330000      -2.95620000      -0.53310000
H        2.63500000      -2.96580000      -2.29610000
H        4.15350000      -0.90150000      -1.51810000
H        2.49750000       1.05100000      -1.29660000
