15
Properties=species:S:1:pos:R:3 gdb_12597=T pbc="F F F"
C       -0.06670000       1.46880000       0.01080000
N        0.01010000       0.02560000       0.02880000
C       -0.00290000      -0.76500000      -1.11880000
O       -0.02790000      -0.35430000      -2.25450000
C        0.00870000      -2.19410000      -0.57030000
N        0.02930000      -2.08350000       0.88520000
C        0.01550000      -0.82650000       1.13940000
N       -0.06280000      -0.27200000       2.39570000
H        0.84650000       1.93120000       0.40440000
H       -0.18170000       1.76430000      -1.03440000
H       -0.92570000       1.82560000       0.58780000
H       -0.87490000      -2.73650000      -0.92850000
H        0.88510000      -2.73490000      -0.94680000
H        0.10390000      -0.95390000       3.12270000
H        0.44270000       0.59050000       2.53640000
