23
Properties=species:S:1:pos:R:3 gdb_62787=T pbc="F F F"
C       -0.03790000       1.56130000      -0.03740000
C        0.06540000       0.04800000       0.04520000
C       -1.17280000      -0.65150000      -0.50090000
C        1.34040000      -0.71630000      -0.20210000
C        2.57490000       0.01570000       0.33360000
C        1.95530000      -0.05980000       1.77930000
C        2.71620000      -1.02140000       2.68930000
O        1.70540000       1.16390000       2.45580000
C        0.69410000      -0.70100000       1.19830000
H        0.81230000       2.07000000       0.41360000
H       -0.12900000       1.87930000      -1.08340000
H       -0.93410000       1.90620000       0.49110000
H       -1.34490000      -0.37480000      -1.54740000
H       -1.07720000      -1.74110000      -0.45390000
H       -2.06520000      -0.36750000       0.06820000
H        1.37530000      -1.54000000      -0.90590000
H        3.50070000      -0.55820000       0.24350000
H        2.74600000       1.02270000      -0.05680000
H        3.70250000      -0.61340000       2.94510000
H        2.15850000      -1.18240000       3.61760000
H        2.87180000      -1.98960000       2.20470000
H        2.53360000       1.46220000       2.84750000
H        0.14900000      -1.49140000       1.70500000
