16
Properties=species:S:1:pos:R:3 gdb_659=T pbc="F F F"
C       -0.02140000       1.52950000       0.05100000
C        1.41730000       2.06270000      -0.01220000
C        2.15200000       1.45490000      -1.20950000
O        2.13160000       0.03710000      -1.17920000
C        0.81150000      -0.48080000      -1.20720000
C       -0.01450000      -0.00500000      -0.00970000
H       -0.52830000       1.88150000       0.95560000
H       -0.59130000       1.92310000      -0.80250000
H        1.43040000       3.15620000      -0.08690000
H        1.95430000       1.79160000       0.90540000
H        1.69570000       1.81660000      -2.14860000
H        3.20740000       1.74340000      -1.21860000
H        0.31140000      -0.18230000      -2.14630000
H        0.91270000      -1.57020000      -1.21480000
H        0.42920000      -0.41090000       0.90790000
H       -1.03360000      -0.40200000      -0.08260000
