14
Properties=species:S:1:pos:R:3 gdb_52215=T pbc="F F F"
O        0.34130000       0.33620000      -0.90370000
C        0.37040000       1.49380000      -0.62540000
O        0.79320000       1.93310000       0.58660000
C        0.85740000       3.34520000       0.78620000
C        2.24900000       3.83970000       0.48280000
O        2.56000000       4.04720000      -0.89410000
C        2.50680000       5.19580000      -0.04770000
C        1.42560000       6.13000000      -0.28410000
N        0.57130000       6.88850000      -0.45820000
H        0.05550000       2.31620000      -1.29400000
H        0.12350000       3.86640000       0.16190000
H        0.61060000       3.52120000       1.83680000
H        3.04760000       3.37200000       1.05800000
H        3.46630000       5.66530000       0.15960000
