21
Properties=species:S:1:pos:R:3 gdb_89222=T pbc="F F F"
C       -0.06640000       1.56300000       0.05910000
C        0.03280000       0.03940000       0.00900000
C        0.82370000      -0.52030000      -1.21160000
C        1.61880000      -1.71050000      -0.66550000
C        2.02090000      -2.83770000      -1.58360000
C        2.52840000      -1.39120000       0.51000000
O        2.19810000      -0.13120000       1.09510000
C        0.79750000      -0.57200000       1.18410000
C        1.18650000      -2.00380000       0.76550000
H        0.93360000       2.00110000       0.12950000
H       -0.55280000       1.95840000      -0.83830000
H       -0.64680000       1.89670000       0.92630000
H       -0.97630000      -0.39580000       0.01290000
H        0.15260000      -0.83870000      -2.01600000
H        1.48920000       0.24420000      -1.62760000
H        2.64900000      -2.47380000      -2.40470000
H        2.58930000      -3.60670000      -1.04900000
H        1.14300000      -3.32300000      -2.02590000
H        3.54200000      -1.75900000       0.62720000
H        0.38980000      -0.39140000       2.18110000
H        0.87520000      -2.95190000       1.18250000
