13
Properties=species:S:1:pos:R:3 gdb_6245=T pbc="F F F"
N        0.61880000       0.17190000      -0.79390000
C        0.01120000       0.20730000       0.42850000
N        0.49030000       0.50510000       1.57570000
N       -1.34510000      -0.19350000       0.43110000
C       -2.17380000      -0.44530000      -0.62840000
O       -1.85160000      -0.38580000      -1.80580000
C       -3.52120000      -0.80360000      -0.21900000
C       -4.64300000      -1.09990000       0.09460000
H        1.49670000       0.65370000      -0.88170000
H        0.02260000       0.08950000      -1.60850000
H        1.47190000       0.76630000       1.50940000
H       -1.73160000      -0.23390000       1.36300000
H       -5.63820000      -1.36420000       0.35960000
