21
Properties=species:S:1:pos:R:3 gdb_82955=T pbc="F F F"
C        0.15140000       1.74080000      -0.16440000
C        0.05710000       0.23620000      -0.06680000
C        0.49970000      -0.68880000      -1.15580000
C        1.12310000      -0.20750000      -2.46770000
C        2.60550000       0.12680000      -2.39540000
N        2.97070000       1.42460000      -1.80310000
C        3.31070000       0.18060000      -1.08910000
C        2.58390000      -0.12310000       0.21370000
N        1.21500000      -0.64190000       0.12390000
H        0.98700000       2.06940000      -0.78570000
H       -0.77910000       2.14330000      -0.58180000
H        0.27380000       2.18050000       0.83290000
H       -0.79670000      -0.09590000       0.52630000
H       -0.06780000      -1.61100000      -1.27670000
H        0.99860000      -1.00980000      -3.20180000
H        0.57990000       0.65850000      -2.86280000
H        3.18640000      -0.19640000      -3.25590000
H        3.79390000       1.80530000      -2.26060000
H        4.36020000      -0.10560000      -1.08390000
H        3.16960000      -0.89020000       0.73590000
H        2.59480000       0.76780000       0.85240000
