21
Properties=species:S:1:pos:R:3 gdb_109724=T pbc="F F F"
C       -0.08790000       1.55700000      -0.30920000
C       -0.08870000       0.14720000       0.29330000
C       -1.42950000      -0.53460000       0.13450000
C       -1.78190000      -1.25760000      -1.13600000
O       -0.84010000      -1.35420000      -2.15700000
C       -1.57040000      -2.06460000       0.14350000
C       -0.42180000      -2.91950000       0.19490000
C        0.54170000      -3.64670000       0.16620000
C        1.70220000      -4.52690000       0.18540000
H        0.88040000       2.04640000      -0.16490000
H       -0.29100000       1.51370000      -1.38330000
H       -0.85300000       2.19040000       0.15370000
H        0.68450000      -0.45650000      -0.18900000
H        0.17030000       0.19140000       1.35840000
H       -2.25810000      -0.02210000       0.61870000
H       -2.80070000      -1.18650000      -1.51010000
H       -0.31430000      -2.15000000      -1.99880000
H       -2.46280000      -2.46080000       0.61930000
H        1.87750000      -4.92530000       1.19090000
H        1.57360000      -5.37930000      -0.49100000
H        2.60950000      -3.99440000      -0.12050000
