23
Properties=species:S:1:pos:R:3 gdb_113089=T pbc="F F F"
C       -0.11600000       1.53270000       0.15410000
C       -0.04300000       0.00990000       0.00850000
C        0.66490000      -0.46630000      -1.27130000
C        0.86360000      -2.00290000      -1.33680000
C        0.65150000      -2.41280000      -2.80790000
O       -0.06060000      -3.64310000      -2.84710000
C       -0.05130000      -4.27140000      -4.10610000
C       -0.09460000      -1.22790000      -3.38540000
C       -0.07960000      -0.18430000      -2.55950000
H        0.88520000       1.97850000       0.15160000
H       -0.68420000       1.99290000      -0.66100000
H       -0.60270000       1.81610000       1.09250000
H        0.48780000      -0.40910000       0.87320000
H       -1.05380000      -0.41740000       0.03360000
H        1.64520000       0.03480000      -1.31060000
H        1.82840000      -2.32770000      -0.94030000
H        0.08060000      -2.50140000      -0.75540000
H        1.61290000      -2.55310000      -3.33410000
H       -0.56820000      -3.68130000      -4.87820000
H        0.97500000      -4.46660000      -4.45700000
H       -0.57220000      -5.22610000      -3.99590000
H       -0.54490000      -1.24350000      -4.37170000
H       -0.52110000       0.78330000      -2.77510000
