15
Properties=species:S:1:pos:R:3 gdb_123455=T pbc="F F F"
C        0.06500000       1.38520000       0.56130000
C       -0.07110000      -0.05910000       0.13020000
C       -1.34380000      -0.60690000      -0.35090000
O       -0.29210000      -0.28030000      -1.26330000
C        1.36740000       1.97760000       0.12940000
C        2.17600000       1.76770000      -0.94680000
N        3.24580000       2.61980000      -0.81490000
N        3.14600000       3.30940000       0.22860000
O        1.92210000       2.92130000       0.88800000
H       -0.75900000       1.97010000       0.13520000
H       -0.01730000       1.46030000       1.65090000
H        0.64890000      -0.74450000       0.57860000
H       -1.55120000      -1.66930000      -0.23780000
H       -2.22120000       0.03630000      -0.40070000
H        2.06640000       1.09430000      -1.77850000
