22
Properties=species:S:1:pos:R:3 gdb_5997=T pbc="F F F"
C        0.00550000       1.39380000       0.04580000
O        0.00320000      -0.01110000       0.00370000
C        0.66260000      -0.59730000       1.10490000
C        0.61430000      -2.12760000       0.97860000
C       -0.84890000      -2.60560000       0.97170000
C        1.32750000      -2.56840000      -0.31230000
C        1.34560000      -2.70480000       2.20140000
O        1.32260000      -4.12270000       2.12430000
H        1.02890000       1.80250000       0.03640000
H       -0.52440000       1.75000000      -0.84120000
H       -0.50580000       1.77790000       0.94330000
H        1.71140000      -0.25190000       1.14360000
H        0.18030000      -0.27820000       2.04640000
H       -1.38520000      -2.17930000       0.12110000
H       -0.89440000      -3.69510000       0.91370000
H       -1.36680000      -2.29450000       1.88680000
H        2.37030000      -2.22930000      -0.31890000
H        1.32770000      -3.65730000      -0.39550000
H        0.83070000      -2.14280000      -1.18690000
H        2.38290000      -2.33130000       2.21900000
H        0.85140000      -2.35580000       3.12330000
H        1.78650000      -4.47260000       2.88980000
