17
Properties=species:S:1:pos:R:3 gdb_37673=T pbc="F F F"
C       -0.01310000       1.55610000      -0.06860000
C        1.45990000       1.89980000      -0.00080000
C        2.39370000       1.03430000      -0.76530000
C        1.87710000      -0.19440000      -1.47240000
C        1.61930000      -1.25260000      -0.47240000
C        1.33100000      -0.36520000       0.76100000
C        0.01950000       0.04130000       0.02460000
N        0.47200000      -0.64750000      -1.24050000
N        2.23020000       0.82520000       0.69740000
H       -0.54690000       1.99700000       0.78040000
H       -0.49370000       1.89660000      -0.99180000
H        1.75440000       2.91680000       0.24330000
H        3.35360000       1.42280000      -1.09620000
H        2.23940000      -0.43160000      -2.46580000
H        1.88050000      -2.30240000      -0.53040000
H        1.29650000      -0.79600000       1.75960000
H       -0.90050000      -0.43150000       0.36960000
