16
Properties=species:S:1:pos:R:3 gdb_97514=T pbc="F F F"
O        0.07060000       1.43120000       0.07010000
C       -0.05060000       0.04060000      -0.17700000
C       -1.41780000      -0.46250000      -0.06130000
C       -2.54880000      -0.86130000       0.07250000
C       -3.89460000      -1.38710000       0.18550000
O       -4.16900000      -2.55020000      -0.01880000
N       -4.82420000      -0.44380000       0.61920000
C       -5.19890000       0.74250000      -0.13110000
C       -6.16520000      -0.38570000       0.08530000
H       -0.29060000       1.60550000       0.94570000
H        0.31350000      -0.11800000      -1.19830000
H        0.60120000      -0.55170000       0.48480000
H       -5.29060000       1.65840000       0.44550000
H       -4.77680000       0.86320000      -1.12540000
H       -6.38750000      -1.03910000      -0.75380000
H       -6.96120000      -0.28040000       0.81640000
