19
Properties=species:S:1:pos:R:3 gdb_56051=T pbc="F F F"
C        0.15400000       1.62450000      -0.45170000
C       -0.25210000       0.33420000       0.23620000
O       -0.70910000       0.28360000       1.35820000
N       -0.05600000      -0.80050000      -0.53420000
C       -0.36260000      -2.08460000      -0.10970000
N       -0.14910000      -3.07490000      -0.87050000
C       -0.47510000      -4.39270000      -0.41010000
C        0.60040000      -5.28070000       0.15540000
C       -0.53820000      -4.81510000       1.03990000
H        1.21280000       1.60100000      -0.73040000
H       -0.42740000       1.77530000      -1.36750000
H       -0.02290000       2.45560000       0.22970000
H        0.33000000      -0.72330000      -1.46420000
H       -0.78510000      -2.11050000       0.89600000
H       -1.17150000      -4.88670000      -1.08320000
H        0.63690000      -6.31830000      -0.15760000
H        1.57040000      -4.82500000       0.32290000
H       -0.30000000      -4.09050000       1.81010000
H       -1.29920000      -5.53100000       1.33080000
