16
Properties=species:S:1:pos:R:3 gdb_65842=T pbc="F F F"
C        0.13910000       1.51010000       0.09140000
C       -0.05970000      -0.01730000       0.01130000
C        0.76040000      -0.62400000      -1.16590000
O        2.06430000      -0.86870000      -0.63540000
C        2.02980000      -0.98690000       0.72480000
O        2.99660000      -1.25000000       1.37170000
C        0.60420000      -0.73440000       1.20720000
C       -1.48130000      -0.33500000      -0.12270000
N       -2.60430000      -0.58270000      -0.23640000
H        1.20670000       1.74150000       0.14980000
H       -0.27540000       2.00270000      -0.79170000
H       -0.35400000       1.91850000       0.97690000
H        0.32490000      -1.56540000      -1.51650000
H        0.85640000       0.06460000      -2.00730000
H        0.60390000      -0.15410000       2.13010000
H        0.13360000      -1.70100000       1.41380000
