16
Properties=species:S:1:pos:R:3 gdb_21155=T pbc="F F F"
C       -0.11140000       1.47310000      -0.00440000
N        0.02130000       0.02410000      -0.10570000
C       -1.14470000      -0.72880000      -0.01050000
C       -1.27680000      -2.10740000       0.01090000
C       -0.27890000      -3.21310000      -0.01660000
N       -2.62770000      -2.27190000       0.05760000
N       -3.28770000      -1.10800000       0.04740000
N       -2.38280000      -0.16180000       0.01410000
H        0.87790000       1.92160000      -0.12520000
H       -0.75930000       1.83370000      -0.80620000
H       -0.54650000       1.81020000       0.94720000
H        0.76620000      -0.33820000       0.47240000
H        0.00120000      -3.55850000       0.98680000
H       -0.65240000      -4.08110000      -0.57000000
H        0.63360000      -2.87410000      -0.51630000
H       -3.15150000      -3.13240000       0.08260000
