17
Properties=species:S:1:pos:R:3 gdb_76569=T pbc="F F F"
O       -0.22620000       1.36130000       0.13160000
C       -0.01580000      -0.01820000       0.02030000
C       -0.27830000      -0.79050000       1.29860000
O       -0.58010000      -0.06470000       2.43790000
C       -1.27590000      -0.86500000       0.14190000
O       -2.46090000      -0.09690000       0.24040000
C       -3.52910000      -0.79410000      -0.41850000
C       -2.89450000      -2.04040000      -0.97190000
C       -1.60430000      -2.06590000      -0.64440000
H       -1.15840000       1.50940000      -0.08910000
H        0.78740000      -0.29310000      -0.65900000
H        0.30670000      -1.68460000       1.50070000
H       -0.53150000       0.86670000       2.17340000
H       -4.32510000      -1.00870000       0.30990000
H       -3.96060000      -0.14810000      -1.19740000
H       -3.44020000      -2.78280000      -1.53880000
H       -0.88090000      -2.83250000      -0.88740000
