15
Properties=species:S:1:pos:R:3 gdb_20783=T pbc="F F F"
C       -0.31050000       1.61780000      -0.16310000
C        0.00450000       0.14170000      -0.02720000
C        0.75590000      -0.57710000      -1.22160000
C        1.88820000      -0.80600000      -0.22520000
C        3.06680000      -1.21040000       0.36180000
N        3.01970000      -0.78920000       1.66630000
N        1.89350000      -0.16030000       1.92620000
N        1.22970000      -0.18210000       0.76060000
H        0.55850000       2.17150000      -0.53010000
H       -1.13760000       1.75810000      -0.86600000
H       -0.60710000       2.04040000       0.80100000
H       -0.85730000      -0.42160000       0.34050000
H        0.26510000      -1.47780000      -1.59540000
H        0.99210000       0.08350000      -2.05880000
H        3.91920000      -1.74620000      -0.01940000
