15
Properties=species:S:1:pos:R:3 gdb_5773=T pbc="F F F"
C        0.19610000       1.55990000       0.05470000
O        1.14290000       0.53170000      -0.23180000
C       -0.19590000       0.13600000       0.07340000
C       -0.39230000      -0.62220000       1.32190000
C        0.39620000      -0.73400000       2.44760000
C       -0.28040000      -1.58560000       3.36220000
C       -1.46140000      -1.97180000       2.77160000
N       -1.51740000      -1.38550000       1.53200000
H        0.33700000       2.07330000       1.00420000
H       -0.08100000       2.19050000      -0.79000000
H       -0.75990000      -0.23220000      -0.78730000
H        1.36120000      -0.26950000       2.57620000
H        0.06530000      -1.88860000       4.33850000
H       -2.25670000      -2.61100000       3.11930000
H       -2.27460000      -1.48670000       0.87860000
