14
Properties=species:S:1:pos:R:3 gdb_4811=T pbc="F F F"
O       -0.09490000       1.35180000      -0.28370000
C       -0.02680000      -0.02870000       0.05310000
C       -1.42260000      -0.56340000       0.03870000
N       -1.77510000      -1.83730000       0.03850000
C       -3.14120000      -1.82570000       0.06140000
O       -3.85320000      -2.97500000       0.06670000
C       -3.63600000      -0.54650000       0.07250000
N       -2.50030000       0.25060000       0.06460000
H        0.75450000       1.75400000      -0.08400000
H        0.58520000      -0.59940000      -0.65990000
H        0.41900000      -0.17080000       1.05030000
H       -3.20500000      -3.68900000       0.04840000
H       -4.63370000      -0.14680000       0.07560000
H       -2.44850000       1.25480000       0.03180000
