21
Properties=species:S:1:pos:R:3 gdb_53947=T pbc="F F F"
C        0.31850000       0.72930000      -0.96080000
C       -0.26000000       0.30000000       0.37500000
O        0.25050000       0.63420000       1.41950000
C       -1.51530000      -0.61130000       0.35800000
C       -2.10690000      -0.69360000       1.77370000
C       -2.55830000      -0.07910000      -0.64180000
C       -1.01310000      -2.00840000      -0.02450000
C       -1.79160000      -2.99090000      -0.79100000
O       -0.70550000      -2.27980000      -1.39370000
H        1.30090000       1.17460000      -0.79880000
H        0.38340000      -0.11540000      -1.65210000
H       -0.33530000       1.47460000      -1.42770000
H       -2.45540000       0.28930000       2.10210000
H       -2.95470000      -1.38560000       1.79060000
H       -1.36040000      -1.02980000       2.49590000
H       -2.23000000      -0.20920000      -1.67550000
H       -3.51060000      -0.60260000      -0.51590000
H       -2.75000000       0.98430000      -0.46870000
H       -0.27110000      -2.40300000       0.67260000
H       -1.61830000      -4.05370000      -0.63000000
H       -2.77880000      -2.73400000      -1.16730000
