21
Properties=species:S:1:pos:R:3 gdb_95405=T pbc="F F F"
C        0.02280000       1.55230000       0.25500000
C       -0.00370000       0.05580000       0.02020000
C       -1.16760000      -0.60900000       0.12930000
C       -1.50820000      -2.05970000      -0.07630000
C       -0.46220000      -2.98720000      -0.69730000
C        0.87730000      -2.98860000       0.05040000
O        1.54410000      -4.19900000      -0.30010000
C        1.71560000      -1.78470000      -0.29560000
C        1.31150000      -0.50960000      -0.31350000
H        0.71290000       1.81460000       1.06660000
H        0.37500000       2.08350000      -0.63840000
H       -0.96580000       1.94070000       0.51090000
H       -2.03440000      -0.01180000       0.41090000
H       -1.83050000      -2.47140000       0.89270000
H       -2.41100000      -2.10240000      -0.70210000
H       -0.84830000      -4.01150000      -0.68830000
H       -0.28180000      -2.71920000      -1.74300000
H        0.66340000      -2.98110000       1.13440000
H        2.38300000      -4.22330000       0.17090000
H        2.74110000      -2.00720000      -0.58440000
H        2.05910000       0.23540000      -0.58100000
