16
Properties=species:S:1:pos:R:3 gdb_29883=T pbc="F F F"
C       -0.09210000       1.48490000       0.00880000
N       -0.00500000       0.03230000       0.02770000
C        0.01210000      -0.68840000      -1.14870000
N        0.03240000      -1.95980000      -1.26960000
C        0.04120000      -2.76660000      -0.09460000
O        0.05440000      -3.97950000      -0.17770000
C        0.04920000      -2.04120000       1.16650000
C        0.01760000      -0.68470000       1.21410000
N       -0.07360000       0.06430000       2.38130000
H        0.82810000       1.95370000       0.37840000
H       -0.24210000       1.80970000      -1.02170000
H       -0.93430000       1.82910000       0.61460000
H        0.00420000      -0.05930000      -2.03930000
H        0.08210000      -2.61650000       2.08390000
H        0.03950000      -0.50120000       3.21110000
H        0.51460000       0.88600000       2.42170000
