14
Properties=species:S:1:pos:R:3 gdb_129817=T pbc="F F F"
N        0.08370000       1.39220000       0.14430000
C       -0.03110000       0.03110000       0.05150000
C       -1.17830000      -0.68590000       0.03000000
C       -1.15610000      -2.12700000      -0.00560000
N       -2.20470000      -2.84640000      -0.02190000
O        0.09670000      -2.74460000      -0.02250000
N        1.28500000      -2.02280000      -0.02230000
C        1.20240000      -0.74550000       0.01560000
O        2.34800000      -0.02640000       0.00920000
H        0.96940000       1.79390000      -0.11650000
H       -0.72900000       1.94700000      -0.06980000
H       -2.15630000      -0.22190000       0.04480000
H       -1.95950000      -3.83650000      -0.04820000
H        3.08230000      -0.65600000      -0.02890000
