21
Properties=species:S:1:pos:R:3 gdb_102467=T pbc="F F F"
C        0.07020000       0.15090000      -1.32770000
C       -0.39010000       0.01260000       0.12570000
C        0.68640000      -0.56900000       1.06280000
C        0.25500000      -0.48400000       2.53610000
O        0.14760000       0.88810000       2.87460000
C        0.97430000      -2.02510000       0.73760000
O        0.10220000      -2.87100000       0.71280000
C        2.40870000      -2.43630000       0.45350000
O        2.51780000      -3.80670000       0.22290000
H        0.32560000      -0.81980000      -1.76710000
H       -0.71860000       0.59040000      -1.94530000
H        0.95150000       0.79720000      -1.40740000
H       -0.68080000       0.98850000       0.52370000
H       -1.27110000      -0.63700000       0.17870000
H        1.61370000       0.00950000       0.95920000
H       -0.70080000      -1.01410000       2.65600000
H        0.99770000      -0.99070000       3.17350000
H       -0.21310000       0.95230000       3.76360000
H        2.75900000      -1.84620000      -0.41190000
H        3.03230000      -2.11760000       1.30660000
H        1.60780000      -4.14130000       0.28210000
