18
Properties=species:S:1:pos:R:3 gdb_49016=T pbc="F F F"
O       -0.10630000       0.00980000      -0.23350000
C        0.01060000       1.17770000       0.05580000
C        1.28990000       1.93190000       0.04500000
C        1.46600000       3.13860000       1.02180000
C        1.75070000       4.10180000      -0.16870000
C        1.57580000       2.92410000      -1.16650000
C        2.80930000       2.06340000      -1.50860000
N        3.69900000       2.05350000      -0.32270000
C        2.54120000       1.13430000      -0.37680000
H       -0.88000000       1.78790000       0.33620000
H        0.54570000       3.37120000       1.56540000
H        2.28320000       3.01700000       1.73250000
H        0.99900000       4.88490000      -0.29190000
H        2.74350000       4.55280000      -0.17090000
H        0.85070000       3.02130000      -1.97470000
H        3.20830000       1.86880000      -2.49660000
H        4.52440000       1.51080000      -0.57290000
H        2.65840000       0.06140000      -0.30160000
