23
Properties=species:S:1:pos:R:3 gdb_58471=T pbc="F F F"
C       -0.61450000       0.34960000      -2.73390000
C       -0.27010000      -0.54840000      -1.53460000
C        0.82900000       0.07950000      -0.66520000
C       -1.51630000      -0.85010000      -0.71400000
O       -2.08160000       0.29570000      -0.10030000
C       -2.49530000      -1.93130000      -1.13660000
C       -1.69090000      -2.08140000       0.14880000
C       -0.64720000      -3.16250000       0.28030000
O       -2.36570000      -1.89330000       1.35840000
H        0.26740000       0.52350000      -3.35790000
H       -1.38950000      -0.10200000      -3.36240000
H       -0.97470000       1.32810000      -2.39670000
H        0.09910000      -1.50280000      -1.92840000
H        1.12870000      -0.59270000       0.14430000
H        1.71710000       0.30810000      -1.26300000
H        0.47250000       1.00970000      -0.21320000
H       -2.70350000       0.69600000      -0.71630000
H       -3.55430000      -1.72320000      -1.01880000
H       -2.23960000      -2.54430000      -1.99570000
H       -0.14210000      -3.36260000      -0.66730000
H        0.10210000      -2.88820000       1.02920000
H       -1.12640000      -4.09000000       0.61040000
H       -2.59220000      -0.95280000       1.39010000
