14
Properties=species:S:1:pos:R:3 gdb_19781=T pbc="F F F"
O        0.00120000       0.01150000      -0.03380000
C       -0.01470000       1.21550000       0.00970000
C       -1.25920000       2.08300000      -0.06850000
N       -1.38290000       3.12360000       0.98810000
C       -0.81570000       3.48390000      -0.31660000
C        0.71330000       3.50500000      -0.33960000
N        1.32920000       3.16100000       0.94740000
C        1.20250000       2.11690000      -0.10540000
H       -2.15340000       1.63750000      -0.49000000
H       -2.35940000       3.41250000       1.01480000
H       -1.35810000       4.14720000      -0.98090000
H        1.21710000       4.18270000      -1.01950000
H        2.29770000       3.47670000       0.94500000
H        2.09560000       1.69600000      -0.55370000
