14
Properties=species:S:1:pos:R:3 gdb_24950=T pbc="F F F"
O        0.04320000      -0.00320000       0.00190000
C       -0.03020000       1.19220000       0.00980000
N       -1.15070000       2.00990000       0.03020000
C       -0.74180000       3.33990000       0.03200000
C        0.59870000       3.32320000       0.01310000
C        1.16090000       4.70080000       0.01270000
C       -0.12980000       5.51650000       0.03520000
C       -1.21930000       4.71570000       0.04620000
O        1.08430000       2.04490000      -0.00100000
H       -2.07810000       1.62450000       0.04080000
H        1.78830000       4.92070000       0.88600000
H        1.76350000       4.93020000      -0.87540000
H       -0.13280000       6.59700000       0.04130000
H       -2.25230000       5.03430000       0.06250000
