15
Properties=species:S:1:pos:R:3 gdb_31371=T pbc="F F F"
C        0.00900000       1.44670000      -0.03440000
O        0.01840000       0.01590000      -0.03030000
C        0.59500000      -0.63490000      -1.04000000
C        0.64160000      -1.98480000      -1.10550000
C        1.28120000      -2.65900000      -2.22510000
O        1.35890000      -3.87360000      -2.34810000
C        1.83840000      -1.71980000      -3.22050000
C        1.73670000      -0.39840000      -3.05760000
O        1.12250000       0.17810000      -1.98070000
H        1.02550000       1.84950000      -0.02550000
H       -0.52760000       1.83670000      -0.90380000
H       -0.51080000       1.73020000       0.88060000
H        0.19520000      -2.56690000      -0.31090000
H        2.33570000      -2.12370000      -4.09340000
H        2.11210000       0.36180000      -3.72980000
