15
Properties=species:S:1:pos:R:3 gdb_85491=T pbc="F F F"
O       -0.84940000       1.25990000      -0.57450000
C       -0.13490000       0.12800000      -0.14370000
C       -1.15630000      -0.93920000       0.24110000
C       -1.43900000      -1.64990000      -1.06330000
N       -2.44280000      -2.35600000      -1.33240000
O       -0.39270000      -1.42290000      -1.93790000
C        0.59250000      -0.59570000      -1.31990000
C        1.14410000       0.34860000      -2.29230000
N        1.59520000       1.14390000      -2.99830000
H       -0.23260000       1.91110000      -0.93000000
H        0.57670000       0.36680000       0.65640000
H       -0.73080000      -1.64830000       0.95890000
H       -2.05920000      -0.50740000       0.67050000
H       -2.38400000      -2.73760000      -2.27770000
H        1.40910000      -1.22170000      -0.93520000
