19
Properties=species:S:1:pos:R:3 gdb_105890=T pbc="F F F"
C       -0.32090000       1.33610000      -0.05090000
O        0.25540000       0.04500000       0.10370000
C        0.71820000      -0.50130000      -1.06830000
C       -0.19200000      -1.07420000      -2.14900000
O       -0.11640000      -0.79490000      -3.51250000
C        0.79720000      -1.96620000      -1.47070000
O        2.07430000      -1.77310000      -2.09970000
C        2.16650000      -0.40750000      -1.56280000
C        2.61260000       0.63160000      -2.57100000
H        0.42060000       2.07500000      -0.38340000
H       -1.14790000       1.32040000      -0.77260000
H       -0.70050000       1.63090000       0.92960000
H       -1.21620000      -1.18720000      -1.80130000
H        0.70330000      -1.20830000      -3.81680000
H        0.61580000      -2.90230000      -0.95560000
H        2.84570000      -0.43160000      -0.70060000
H        1.89680000       0.73020000      -3.38880000
H        2.71120000       1.60440000      -2.07700000
H        3.59350000       0.36650000      -2.97930000
