21
Properties=species:S:1:pos:R:3 gdb_104389=T pbc="F F F"
C       -0.29100000       1.59720000       0.11580000
C        0.00230000       0.09450000       0.05750000
C       -1.31650000      -0.69540000      -0.07040000
O       -1.97410000      -0.50200000      -1.31310000
C        0.97940000      -0.27730000      -1.10110000
O        2.13790000      -0.87020000      -0.50440000
C        1.68490000      -1.49020000       0.69170000
C        0.78250000      -0.42220000       1.31170000
O        1.55960000       0.57830000       1.94870000
H        0.62620000       2.17980000       0.21950000
H       -0.79020000       1.93080000      -0.80130000
H       -0.93290000       1.84530000       0.96780000
H       -1.11890000      -1.77150000      -0.01410000
H       -1.97790000      -0.44090000       0.77250000
H       -2.31950000       0.39560000      -1.33200000
H        0.50340000      -0.98000000      -1.79780000
H        1.31590000       0.59190000      -1.67290000
H        1.13560000      -2.42220000       0.47960000
H        2.55180000      -1.72250000       1.31480000
H        0.10760000      -0.81360000       2.07900000
H        2.29470000       0.77470000       1.35480000
