15
Properties=species:S:1:pos:R:3 gdb_36714=T pbc="F F F"
N       -0.04830000      -1.12720000       0.25380000
C       -0.02140000       0.02050000       0.13350000
C       -0.03030000       1.47620000      -0.01990000
O        1.30700000       1.94400000      -0.03220000
C        1.41140000       3.33630000      -0.05870000
C        2.90000000       3.72800000      -0.10870000
N        3.12260000       4.20920000      -1.48000000
C        1.98070000       4.23820000      -2.02020000
O        0.88490000       3.86080000      -1.29560000
H       -0.54910000       1.73830000      -0.95060000
H       -0.59630000       1.91840000       0.81470000
H        0.82120000       3.78360000       0.75050000
H        3.14320000       4.51980000       0.60620000
H        3.52700000       2.86010000       0.10960000
H        1.76080000       4.55600000      -3.03270000
