25
Properties=species:S:1:pos:R:3 gdb_115712=T pbc="F F F"
C       -0.40720000       1.76470000      -0.52460000
C       -0.47190000       0.23560000      -0.43780000
C        0.52230000      -0.44000000      -1.38110000
C        1.99310000      -0.40040000      -0.90930000
O        1.98330000      -1.80810000      -0.60720000
C        0.71350000      -1.98470000      -1.28300000
C       -0.25270000      -2.88180000      -0.51730000
C       -1.53770000      -3.10870000      -1.32610000
C        0.43270000      -4.21320000      -0.17710000
H        0.59240000       2.13780000      -0.27580000
H       -0.64760000       2.11370000      -1.53500000
H       -1.11500000       2.23110000       0.16720000
H       -0.27250000      -0.08010000       0.59360000
H       -1.49100000      -0.09540000      -0.67050000
H        0.36290000      -0.08060000      -2.40230000
H        2.72440000      -0.15520000      -1.69150000
H        2.20710000       0.20700000      -0.02100000
H        0.88380000      -2.42640000      -2.27970000
H       -0.51050000      -2.38380000       0.42540000
H       -2.24250000      -3.73170000      -0.76650000
H       -2.04460000      -2.16990000      -1.57050000
H       -1.31850000      -3.62350000      -2.26920000
H        1.35200000      -4.04270000       0.38790000
H       -0.22980000      -4.85040000       0.41770000
H        0.69390000      -4.76270000      -1.08960000
