11
Properties=species:S:1:pos:R:3 gdb_50804=T pbc="F F F"
N       -0.01270000       1.41410000      -0.16180000
C       -0.00530000       0.15230000      -0.10890000
O       -1.11960000      -0.61200000      -0.17460000
C       -2.35820000      -0.02470000       0.06570000
O       -3.35330000      -0.63810000      -0.12660000
C        1.22790000      -0.72850000       0.01540000
O        1.20280000      -1.92340000       0.10110000
C        2.49710000       0.02630000       0.02690000
N        3.49670000       0.60740000       0.04060000
H        0.92580000       1.80800000      -0.09290000
H       -2.26650000       0.99940000       0.44690000
