15
Properties=species:S:1:pos:R:3 gdb_125937=T pbc="F F F"
C       -0.60190000       1.57890000      -0.31220000
C        0.00400000       0.21000000      -0.08760000
C        0.96360000      -0.38200000      -1.20500000
C        2.00050000      -0.42250000      -0.10080000
N        3.12880000      -0.84850000       0.34510000
O        3.04470000      -0.46830000       1.73760000
C        1.81500000       0.09990000       2.05330000
O        1.47060000       0.43080000       3.14910000
N        1.19960000       0.17920000       0.81190000
H        0.15770000       2.29580000      -0.63670000
H       -1.37920000       1.51970000      -1.08050000
H       -1.05930000       1.95250000       0.60820000
H       -0.74670000      -0.51430000       0.23940000
H        0.67640000      -1.35150000      -1.61280000
H        1.18220000       0.31380000      -2.01690000
