20
Properties=species:S:1:pos:R:3 gdb_22113=T pbc="F F F"
C        0.12050000       1.58230000       0.05800000
C       -0.05290000       0.06320000       0.02910000
O        0.38640000      -0.49310000      -1.20380000
C        0.64650000      -0.60990000       1.22880000
C        0.61840000      -2.11130000       1.15150000
C       -0.70440000      -2.85700000       1.20900000
O       -0.75660000      -3.80090000       2.26120000
N        1.75330000      -2.68770000       1.03450000
O        1.61470000      -4.09470000       0.93770000
H        1.18300000       1.85140000       0.02450000
H       -0.37330000       2.03240000      -0.80690000
H       -0.30750000       2.01450000       0.96870000
H       -1.12470000      -0.16820000       0.06230000
H        1.35040000      -0.48410000      -1.20850000
H        1.69190000      -0.28270000       1.27110000
H        0.16090000      -0.27850000       2.15600000
H       -1.52010000      -2.15070000       1.38640000
H       -0.88000000      -3.32210000       0.22620000
H       -0.01890000      -4.40390000       2.10750000
H        2.53010000      -4.38960000       0.90140000
