17
Properties=species:S:1:pos:R:3 gdb_85398=T pbc="F F F"
O       -0.12250000       1.44070000       0.09850000
C        0.02390000       0.03420000       0.00180000
C        0.80000000      -0.53650000       1.20500000
C        0.81450000      -2.05800000       1.19960000
O        1.82600000      -2.70860000       1.28890000
C       -0.56000000      -2.70750000       1.05200000
C       -1.39650000      -2.06600000      -0.05670000
O       -2.01130000      -2.72970000      -0.85370000
C       -1.39330000      -0.54490000      -0.07240000
H        0.75280000       1.84000000       0.05620000
H        0.56180000      -0.23170000      -0.92250000
H        1.83310000      -0.17910000       1.22090000
H        0.29930000      -0.18740000       2.11840000
H       -0.46390000      -3.78060000       0.88730000
H       -1.09960000      -2.54030000       1.99640000
H       -1.94650000      -0.18250000       0.80550000
H       -1.91110000      -0.19550000      -0.96680000
