15
Properties=species:S:1:pos:R:3 gdb_15560=T pbc="F F F"
C        0.14260000       1.69710000      -0.07740000
C        0.14940000       0.17950000      -0.00340000
O        0.95510000      -0.34160000      -1.10660000
C        1.95580000      -1.04630000      -0.54470000
N        2.00470000      -1.19650000       0.71370000
C        0.82540000      -0.49270000       1.24170000
C        1.21690000       0.41920000       2.39930000
O        0.48740000       1.24370000       2.88650000
H        1.15280000       2.10230000       0.03390000
H       -0.25230000       2.01480000      -1.04580000
H       -0.47920000       2.11010000       0.71890000
H       -0.86120000      -0.20880000      -0.15030000
H        2.67590000      -1.44680000      -1.25000000
H        0.14250000      -1.23220000       1.68500000
H        2.24150000       0.23180000       2.78560000
