16
Properties=species:S:1:pos:R:3 gdb_125372=T pbc="F F F"
C       -0.03160000       1.50740000       0.02460000
C        0.01010000       0.00820000      -0.00450000
C        0.15210000      -0.71510000      -1.15930000
N        0.19890000      -2.06000000      -1.15300000
N        0.10440000      -2.84040000      -0.05120000
C       -0.04990000      -2.19880000       1.07950000
N       -0.20500000      -2.88590000       2.24160000
C       -0.09290000      -0.71940000       1.23040000
O       -0.19910000      -0.21950000       2.35500000
H        0.06670000       1.93480000      -0.97730000
H       -0.96990000       1.86120000       0.46540000
H        0.77090000       1.90430000       0.65560000
H        0.24000000      -0.25320000      -2.13740000
H        0.30940000      -2.57990000      -2.00710000
H        0.06850000      -3.85290000       2.27730000
H       -0.11130000      -2.31220000       3.06730000
