15
Properties=species:S:1:pos:R:3 gdb_69625=T pbc="F F F"
C       -0.21840000       1.53550000       0.04490000
C        0.09350000       0.07830000       0.01750000
O       -0.75340000      -0.85690000       0.69100000
C        0.63680000      -0.86770000       0.99240000
C        1.38760000      -1.65730000      -0.16650000
O        0.39830000      -2.07130000      -1.12040000
C        0.81980000      -0.71660000      -1.15020000
C        2.63980000      -2.31330000      -0.06990000
C        3.70460000      -2.85380000       0.07560000
H        0.65480000       2.12350000      -0.25650000
H       -1.03740000       1.76990000      -0.64410000
H       -0.51640000       1.84230000       1.05080000
H        0.96090000      -0.76270000       2.02050000
H        1.24160000      -0.32010000      -2.06640000
H        4.64400000      -3.33650000       0.18750000
