14
Properties=species:S:1:pos:R:3 gdb_28560=T pbc="F F F"
N        0.09190000       1.38110000      -0.12330000
C       -0.03500000      -0.00720000      -0.07830000
N       -1.10730000      -0.71280000      -0.20660000
C       -0.70800000      -2.05980000      -0.19760000
C        0.63340000      -2.15450000      -0.03910000
O        1.46280000      -3.19830000       0.06800000
N        1.10960000      -0.82190000       0.02480000
C        2.43000000      -0.44370000       0.00660000
O        3.35050000      -1.23640000       0.04750000
H       -0.80290000       1.78280000      -0.37960000
H        0.39230000       1.78780000       0.75750000
H       -1.42260000      -2.86020000      -0.28860000
H        2.37420000      -2.84960000       0.07530000
H        2.56750000       0.64560000      -0.05890000
