18
Properties=species:S:1:pos:R:3 gdb_87497=T pbc="F F F"
C        0.05190000       1.53540000      -0.10990000
C        0.02320000       0.04170000       0.06170000
O        1.31730000      -0.64330000      -0.00030000
C        0.59280000      -0.63470000       1.21000000
C        1.12170000      -0.25680000       2.60210000
N       -0.19580000      -0.81270000       3.11580000
C        0.26530000      -1.84340000       2.09800000
C        1.72560000      -1.70850000       2.66600000
O        2.85150000      -2.08870000       1.94740000
H        0.85430000       1.98070000       0.48320000
H        0.20700000       1.80110000      -1.16040000
H       -0.90170000       1.96680000       0.21210000
H       -0.75150000      -0.48380000      -0.49740000
H        1.53460000       0.68770000       2.95660000
H       -0.04160000      -1.19410000       4.05530000
H       -0.31590000      -2.73560000       1.86510000
H        1.83690000      -2.09150000       3.68580000
H        2.76680000      -1.76050000       1.04330000
