17
Properties=species:S:1:pos:R:3 gdb_128406=T pbc="F F F"
C       -0.19870000       1.48700000      -0.26530000
N       -0.17210000       0.02540000      -0.30640000
H       -0.26820000      -0.33970000       0.63690000
H       -1.51000000      -1.30630000      -1.13730000
C        1.06290000      -0.52030000      -0.89100000
C        0.86590000      -1.97950000      -1.12390000
C       -0.27990000      -2.68770000      -1.34330000
O       -1.55650000      -2.24910000      -1.39070000
C        0.17650000      -4.02240000      -1.51500000
N        1.48190000      -4.10730000      -1.40940000
O        1.92670000      -2.81610000      -1.15650000
H        0.66570000       1.92830000       0.25610000
H       -0.21190000       1.87880000      -1.28720000
H       -1.11140000       1.81930000       0.23580000
H        1.23440000       0.00300000      -1.84220000
H        1.95880000      -0.34370000      -0.27370000
H       -0.40530000      -4.91120000      -1.71160000
