17
Properties=species:S:1:pos:R:3 gdb_69941=T pbc="F F F"
C       -0.11160000       1.52640000       0.01890000
C        0.13080000       0.04540000      -0.02780000
O       -0.69470000      -0.77000000       0.84350000
C        0.70740000      -0.77850000       1.07730000
C        1.52440000      -1.87370000       0.40780000
O        1.14220000      -3.28830000       0.34660000
C        1.16250000      -3.27290000      -1.11570000
C        1.14360000      -1.76480000      -1.03710000
C        0.35680000      -0.72490000      -1.30810000
H        0.74110000       2.07050000      -0.40010000
H       -0.99840000       1.78930000      -0.56830000
H       -0.27540000       1.85960000       1.04620000
H        1.02640000      -0.34080000       2.01950000
H        2.58430000      -1.78160000       0.68000000
H        2.08170000      -3.73240000      -1.50120000
H        0.28630000      -3.76250000      -1.55170000
H       -0.24380000      -0.56420000      -2.19580000
