15
Properties=species:S:1:pos:R:3 gdb_43097=T pbc="F F F"
O       -0.01410000       0.01500000      -0.02340000
C       -0.02610000       1.20940000       0.00560000
C       -1.16760000       2.24310000       0.05690000
C       -0.80140000       2.75960000       1.47930000
C        0.51250000       3.39460000       0.98680000
O       -0.03070000       4.34910000       0.06290000
C       -0.51330000       3.38330000      -0.84720000
O        0.70800000       2.79020000      -1.30010000
C        1.09370000       2.26710000      -0.01370000
H       -2.18110000       1.92190000      -0.16060000
H       -1.47840000       3.51810000       1.87370000
H       -0.68470000       1.94610000       2.20200000
H        1.19780000       3.86410000       1.68720000
H       -1.07640000       3.82160000      -1.66600000
H        2.14020000       1.98200000       0.01790000
