16
Properties=species:S:1:pos:R:3 gdb_37842=T pbc="F F F"
C       -0.02570000       1.56100000       0.03870000
N        1.44410000       1.78080000       0.15510000
C        1.99320000       0.75530000      -0.42010000
N        2.56660000      -0.20550000       0.49660000
C        1.21840000      -0.90610000       0.53020000
C        0.85720000      -1.50180000      -0.84900000
N       -0.62470000      -1.23800000      -0.56230000
C        0.10040000       0.02180000      -0.18850000
C        1.10780000      -0.05170000      -1.37020000
H       -0.48290000       1.90290000       0.97200000
H       -0.56510000       2.02590000      -0.79950000
H        3.22300000      -0.83540000       0.03300000
H        0.98070000      -1.43450000       1.45110000
H        1.17450000      -2.45760000      -1.26740000
H       -1.11940000      -1.09220000      -1.44700000
H        0.79450000       0.30040000      -2.35000000
