23
Properties=species:S:1:pos:R:3 gdb_60000=T pbc="F F F"
C       -0.02010000       1.55150000      -0.09410000
C        0.00330000       0.03580000       0.06790000
O        0.63100000      -0.24070000       1.30960000
C       -1.40590000      -0.57550000      -0.00690000
C       -1.42600000      -2.11000000       0.01810000
O       -0.79340000      -2.62890000       1.20680000
C       -2.81830000      -2.67310000      -0.14960000
C       -3.34040000      -3.01160000      -1.52480000
C       -3.00390000      -4.11250000      -0.55220000
H        0.99280000       1.95120000       0.00540000
H       -0.41480000       1.83870000      -1.07350000
H       -0.64170000       2.00830000       0.68310000
H        0.59850000      -0.39300000      -0.76060000
H        0.48400000      -1.18200000       1.48200000
H       -2.00320000      -0.18880000       0.83130000
H       -1.89770000      -0.24470000      -0.93010000
H       -0.79350000      -2.48740000      -0.79600000
H       -1.38670000      -2.46110000       1.94830000
H       -3.54760000      -2.26560000       0.54900000
H       -4.38350000      -2.81010000      -1.74120000
H       -2.67650000      -2.85920000      -2.36970000
H       -2.10890000      -4.69780000      -0.73370000
H       -3.81750000      -4.67180000      -0.10440000
