21
Properties=species:S:1:pos:R:3 gdb_89436=T pbc="F F F"
C       -0.12890000       1.57490000       0.01470000
C        0.02160000       0.04900000       0.00070000
C        0.81510000      -0.49600000      -1.22860000
C        2.15250000      -0.94950000      -0.64270000
C        3.12510000      -1.66170000      -1.54670000
O        2.76530000       0.25010000      -0.02460000
C        2.29490000      -0.19160000       1.24730000
C        0.80950000      -0.49470000       1.19890000
C        1.82940000      -1.52550000       0.76280000
H        0.85230000       2.05370000      -0.03700000
H       -0.72590000       1.92020000      -0.83640000
H       -0.62960000       1.91220000       0.92900000
H       -0.97870000      -0.39890000       0.01360000
H        0.30060000      -1.34760000      -1.68880000
H        0.96310000       0.26560000      -2.00090000
H        3.40140000      -1.02010000      -2.38970000
H        4.03670000      -1.92350000      -1.00300000
H        2.67830000      -2.57890000      -1.94510000
H        2.84210000       0.12150000       2.12910000
H        0.31450000      -0.62280000       2.15630000
H        1.96450000      -2.53560000       1.12500000
