21
Properties=species:S:1:pos:R:3 gdb_109072=T pbc="F F F"
C       -0.30300000       1.51470000      -0.02890000
C        0.15070000       0.04550000       0.02820000
C        0.86070000      -0.40650000      -1.20770000
C        2.09960000      -0.89720000      -1.35620000
C        2.24730000      -1.36640000      -2.79390000
C        1.27110000      -2.57430000      -2.93550000
O       -0.02680000      -1.98700000      -2.77860000
C        0.20620000      -0.55990000      -2.58190000
C        1.38810000      -0.29840000      -3.52290000
H        0.55460000       2.18490000      -0.14420000
H       -0.97990000       1.69170000      -0.87100000
H       -0.83300000       1.79420000       0.88680000
H        0.80050000      -0.10520000       0.89810000
H       -0.73050000      -0.59250000       0.18460000
H        2.83020000      -1.06840000      -0.57420000
H        3.25670000      -1.55100000      -3.16020000
H        1.34350000      -3.04210000      -3.92590000
H        1.43590000      -3.33940000      -2.16820000
H       -0.73760000      -0.04600000      -2.75910000
H        1.80350000       0.70670000      -3.43920000
H        1.16150000      -0.53720000      -4.56620000
