19
Properties=species:S:1:pos:R:3 gdb_63279=T pbc="F F F"
C        0.21050000       1.44490000      -0.20310000
C       -0.03800000      -0.03130000       0.05140000
C       -1.49460000      -0.43790000      -0.09740000
O        0.81310000      -0.85280000      -0.84360000
C        1.47400000      -1.44530000       0.21720000
N        2.38870000      -2.30130000       0.24280000
C        0.71260000      -0.66480000       1.23990000
C        1.15670000      -0.06930000       2.51870000
N        0.19450000      -1.18430000       2.49850000
H        1.27430000       1.67970000      -0.11790000
H       -0.12730000       1.72140000      -1.20670000
H       -0.34000000       2.05740000       0.51900000
H       -1.85370000      -0.19960000      -1.10300000
H       -1.61970000      -1.51060000       0.07090000
H       -2.12190000       0.10390000       0.61930000
H        2.65480000      -2.59200000      -0.69930000
H        2.13830000      -0.32370000       2.90710000
H        0.80450000       0.93050000       2.76150000
H       -0.75190000      -0.83990000       2.64940000
