16
Properties=species:S:1:pos:R:3 gdb_42430=T pbc="F F F"
N       -0.10770000       1.40610000       0.32390000
C       -0.00930000       0.13490000       0.31110000
N       -1.12360000      -0.66410000       0.19070000
C       -2.43840000      -0.05290000       0.25690000
C       -3.46340000      -0.97520000      -0.23380000
N       -4.27170000      -1.71330000      -0.60210000
C        1.28430000      -0.63330000       0.35710000
C        2.29230000      -0.45130000      -0.70250000
O        2.44790000       0.14640000       0.58470000
H        0.82450000       1.81480000       0.38930000
H       -1.05380000      -1.62720000       0.47730000
H       -2.70510000       0.27220000       1.27340000
H       -2.42190000       0.85250000      -0.35710000
H        1.26230000      -1.58750000       0.88660000
H        2.98500000      -1.25880000      -0.93160000
H        2.07800000       0.24200000      -1.51300000
