19
Properties=species:S:1:pos:R:3 gdb_114981=T pbc="F F F"
C        0.05570000       1.37800000       0.15890000
O       -0.12130000       0.00030000      -0.08730000
C        0.60660000      -0.50520000      -1.18970000
C        2.10210000      -0.68850000      -0.88000000
C        2.79910000      -1.47620000      -1.95470000
C        2.16290000      -2.29740000      -2.79970000
C        0.70340000      -2.52750000      -2.72610000
O        0.12550000      -3.24380000      -3.51810000
C       -0.02410000      -1.84250000      -1.57400000
H        1.07600000       1.62290000       0.48820000
H       -0.17410000       1.98120000      -0.73300000
H       -0.63850000       1.65170000       0.95700000
H        0.51400000       0.19110000      -2.04110000
H        2.59930000       0.27930000      -0.75300000
H        2.19680000      -1.20820000       0.08500000
H        3.87730000      -1.35610000      -2.03310000
H        2.68880000      -2.84430000      -3.57590000
H        0.02020000      -2.51050000      -0.70210000
H       -1.07710000      -1.72350000      -1.83720000
