21
Properties=species:S:1:pos:R:3 gdb_44949=T pbc="F F F"
O       -0.01230000       0.00110000       0.02830000
C       -0.02860000       1.20430000      -0.01350000
C       -1.28260000       2.09260000      -0.08310000
C       -0.74050000       3.53110000       0.05230000
C        0.63760000       3.41470000      -0.64240000
C        1.19290000       2.13420000       0.00460000
C        1.56150000       2.43170000       1.48070000
C        0.33630000       2.90630000       2.28850000
C       -0.52200000       3.93610000       1.52540000
H       -1.75110000       1.93760000      -1.06300000
H       -2.01560000       1.79460000       0.67230000
H       -1.39120000       4.26060000      -0.43750000
H        0.52140000       3.29240000      -1.72540000
H        1.27400000       4.28820000      -0.47020000
H        2.03760000       1.67900000      -0.51660000
H        1.98960000       1.53770000       1.94550000
H        2.34190000       3.20290000       1.48430000
H       -0.28310000       2.03440000       2.53250000
H        0.65710000       3.32110000       3.24970000
H       -0.03120000       4.91760000       1.54480000
H       -1.48570000       4.05970000       2.03320000
