19
Properties=species:S:1:pos:R:3 gdb_19078=T pbc="F F F"
C       -0.07530000       1.43830000       0.00680000
C        0.03730000      -0.07450000      -0.01480000
C        0.69070000      -0.65680000      -1.23920000
C        1.45210000      -0.59960000       0.06530000
N        1.73550000      -2.08940000       0.06860000
C        0.50780000      -2.92620000       0.03350000
C       -0.71600000      -2.84460000       0.93920000
C        0.89580000      -2.18030000      -1.19070000
H        0.78770000       1.90760000      -0.47770000
H       -0.97460000       1.77280000      -0.52150000
H       -0.12750000       1.81460000       1.03380000
H       -0.79050000      -0.57540000       0.46350000
H        0.84390000      -0.08510000      -2.14550000
H        2.27500000       0.03500000       0.37070000
H        0.86010000      -3.95470000      -0.04960000
H       -0.54190000      -2.19440000       1.79990000
H       -1.60880000      -2.49340000       0.41480000
H       -0.93880000      -3.84220000       1.32780000
H        1.28380000      -2.70520000      -2.06040000
