9
Properties=species:S:1:pos:R:3 gdb_8722=T pbc="F F F"
O       -0.03510000      -0.02530000       0.00170000
C       -0.03820000       1.17340000       0.00700000
C        1.30230000       1.94980000      -0.00040000
O        2.37060000       1.40300000      -0.01260000
C        1.20490000       3.48410000       0.00860000
O        0.15020000       4.06590000       0.02110000
C        2.49470000       4.18920000       0.00090000
N        3.49440000       4.76950000      -0.00490000
H       -0.95810000       1.78330000       0.01720000
