16
Properties=species:S:1:pos:R:3 gdb_16107=T pbc="F F F"
C        0.02020000      -1.19800000      -0.08290000
C        0.03530000       0.00410000      -0.02840000
C        0.02100000       1.43020000       0.05870000
C        0.33210000       2.29870000      -1.14990000
C        1.28160000       2.29090000       0.01190000
C        1.06240000       3.36820000       1.05790000
O       -0.34720000       3.41870000       1.26000000
C       -0.86160000       2.10260000       1.11280000
H        0.01200000      -2.25810000      -0.13740000
H        0.63790000       1.77990000      -2.05020000
H       -0.28810000       3.17620000      -1.30300000
H        2.25710000       1.83150000      -0.08630000
H        1.59300000       3.10710000       1.98750000
H        1.37950000       4.36860000       0.74560000
H       -1.91190000       2.19060000       0.81950000
H       -0.80300000       1.53330000       2.05320000
