12
Properties=species:S:1:pos:R:3 gdb_11149=T pbc="F F F"
O       -0.00820000      -0.00470000       0.00330000
C       -0.04330000       1.19780000       0.00990000
C       -1.26050000       2.13490000       0.03180000
C       -0.64050000       3.51670000       0.03060000
C        0.70240000       3.37680000       0.01150000
N        1.06900000       2.04400000      -0.00060000
C       -1.35430000       4.73130000       0.04700000
N       -1.96980000       5.71450000       0.06070000
H       -1.89260000       1.94130000      -0.84090000
H       -1.86830000       1.93190000       0.91960000
H        1.45490000       4.15180000       0.00530000
H        2.01410000       1.69610000      -0.01530000
