16
Properties=species:S:1:pos:R:3 gdb_13858=T pbc="F F F"
N       -0.07350000       1.23730000      -0.08920000
C       -0.02670000      -0.13670000      -0.10600000
N        1.04470000      -0.78310000      -0.34950000
C       -1.36240000      -0.78490000       0.29880000
O       -2.44330000      -0.12140000      -0.35840000
C       -3.01770000      -1.03530000      -1.29380000
C       -1.99260000      -2.17020000      -1.36200000
O       -1.42170000      -2.13980000      -0.05440000
H        0.73740000       1.69050000      -0.48460000
H       -0.96280000       1.64320000      -0.33790000
H        0.86500000      -1.78060000      -0.23500000
H       -1.50070000      -0.71080000       1.38470000
H       -3.98670000      -1.38700000      -0.91820000
H       -3.16600000      -0.53000000      -2.25250000
H       -2.42980000      -3.15710000      -1.52180000
H       -1.22630000      -1.97760000      -2.12420000
