22
Properties=species:S:1:pos:R:3 gdb_89424=T pbc="F F F"
C       -0.52900000       1.44900000       0.15650000
C       -0.00590000       0.00410000       0.01140000
C        0.67910000      -0.24550000      -1.35510000
C        2.16100000       0.09460000      -1.42560000
C        2.83770000      -0.27610000      -2.72780000
N        2.57570000       1.33670000      -0.75340000
C        2.93160000       0.01110000      -0.15180000
C        2.22270000      -0.36540000       1.09340000
C        0.89100000      -0.37040000       1.16590000
H        0.29640000       2.15820000       0.07310000
H       -1.26520000       1.66760000      -0.62580000
H       -1.01770000       1.59260000       1.12610000
H       -0.88420000      -0.65490000       0.04980000
H        0.58800000      -1.31090000      -1.60300000
H        0.13900000       0.30160000      -2.13850000
H        2.41860000       0.29770000      -3.56330000
H        3.91360000      -0.07460000      -2.68620000
H        2.70400000      -1.33880000      -2.95780000
H        3.39380000       1.71820000      -1.22550000
H        3.97680000      -0.28080000      -0.21920000
H        2.82680000      -0.63380000       1.95560000
H        0.40200000      -0.62760000       2.10260000
