15
Properties=species:S:1:pos:R:3 gdb_50057=T pbc="F F F"
O        0.17230000      -0.12780000      -0.23090000
C        0.09220000       1.03770000       0.07340000
C        1.27950000       1.93600000       0.11280000
C        1.13360000       3.39160000      -0.24220000
C        1.44130000       3.03990000       1.18530000
C        0.38380000       3.25510000       2.21940000
O       -0.80250000       3.32330000       1.96220000
C        0.87470000       3.39450000       3.57810000
C        1.29500000       3.50950000       4.70020000
H       -0.87490000       1.51470000       0.32150000
H        2.20260000       1.43560000      -0.15920000
H        1.91330000       3.85260000      -0.83630000
H        0.12550000       3.75010000      -0.42310000
H        2.45810000       3.16570000       1.53790000
H        1.64690000       3.61170000       5.69830000
