19
Properties=species:S:1:pos:R:3 gdb_37049=T pbc="F F F"
C        0.01550000       1.48950000       0.17070000
C        1.35590000       0.81600000      -0.05630000
C        1.71030000       0.00400000       1.19090000
O        0.42040000      -0.67300000       1.17890000
C        0.08010000       0.00600000      -0.03650000
C       -0.36720000      -0.73930000      -1.26320000
O        0.71260000      -0.89290000      -2.18660000
C        1.33200000       0.34150000      -2.50610000
C        2.16160000       0.90850000      -1.32690000
H       -0.23550000       1.87460000       1.15480000
H       -0.36530000       2.07270000      -0.66220000
H        2.52220000      -0.71250000       1.01890000
H        1.88520000       0.54590000       2.12840000
H       -0.69060000      -1.74750000      -0.99370000
H       -1.20320000      -0.22140000      -1.75890000
H        1.98190000       0.14540000      -3.36290000
H        0.57130000       1.07450000      -2.82620000
H        2.48950000       1.92810000      -1.56280000
H        3.06330000       0.29560000      -1.21660000
