17
Properties=species:S:1:pos:R:3 gdb_128589=T pbc="F F F"
C       -0.10730000       1.41880000       0.04950000
O        0.00080000       0.01040000       0.06000000
C        0.61520000      -0.52520000      -1.02260000
C        1.14000000       0.06140000      -2.15960000
N        1.60770000      -0.95060000      -2.94280000
C        2.38640000      -0.84210000      -4.15150000
N        1.43780000      -2.16310000      -2.36140000
C        0.83230000      -1.91070000      -1.21230000
O        0.46460000      -2.88370000      -0.35220000
H        0.88250000       1.89590000       0.01240000
H       -0.70000000       1.76850000      -0.80800000
H       -0.61040000       1.70370000       0.97490000
H        1.20640000       1.09140000      -2.46780000
H        3.46430000      -0.86740000      -3.94840000
H        2.13490000      -1.67530000      -4.81080000
H        2.14200000       0.09740000      -4.65260000
H        0.73430000      -3.72180000      -0.74790000
