16
Properties=species:S:1:pos:R:3 gdb_15590=T pbc="F F F"
N       -0.13620000       1.50940000       0.45500000
C       -0.02640000       0.10970000       0.05480000
C        0.72040000      -0.69390000       1.14700000
O       -0.25020000      -1.41570000       1.90420000
C       -1.53650000      -0.91660000       1.59670000
C       -1.43000000      -0.55820000       0.09950000
C       -2.50360000       0.27640000      -0.41830000
N       -3.34900000       0.94420000      -0.83780000
H        0.78700000       1.92020000       0.54790000
H       -0.63200000       2.04630000      -0.25070000
H        0.43590000      -0.04260000      -0.93120000
H        1.42100000      -1.41950000       0.72010000
H        1.27890000      -0.00680000       1.79640000
H       -2.26890000      -1.69990000       1.80360000
H       -1.78240000      -0.01890000       2.17880000
H       -1.39980000      -1.48670000      -0.48090000
