15
Properties=species:S:1:pos:R:3 gdb_24334=T pbc="F F F"
C        0.02350000       1.51530000      -0.05200000
N        1.38240000       2.03810000       0.12040000
C        2.36530000       1.26350000       0.26890000
O        2.41100000      -0.10640000       0.30330000
C        1.18720000      -0.70840000       0.15070000
C        0.92260000      -2.05450000       0.14260000
N       -0.43860000      -2.16480000      -0.03800000
C       -1.01380000      -0.92290000      -0.14190000
C       -0.01440000       0.01660000      -0.02630000
H       -0.60110000       1.95690000       0.73670000
H       -0.36780000       1.92130000      -0.99500000
H        3.37200000       1.65370000       0.39650000
H        1.56260000      -2.91320000       0.24660000
H       -0.93710000      -3.03480000      -0.08690000
H       -2.07640000      -0.81390000      -0.28760000
