17
Properties=species:S:1:pos:R:3 gdb_6146=T pbc="F F F"
C       -0.20640000       1.52140000      -0.04320000
C        0.01040000       0.01200000      -0.01610000
O       -1.20360000      -0.68610000      -0.18830000
C        1.21120000      -0.46540000      -0.89520000
C        2.08600000      -0.51060000       0.39700000
C        0.76940000      -0.49540000       1.23580000
C        2.99340000      -1.63060000       0.56950000
N        3.70570000      -2.53180000       0.70300000
H        0.72350000       2.06930000       0.13970000
H       -0.58510000       1.83980000      -1.02260000
H       -0.93410000       1.81220000       0.72040000
H       -1.68240000      -0.29310000      -0.92630000
H        1.02060000      -1.46910000      -1.27880000
H        1.55750000       0.18270000      -1.70330000
H        2.64750000       0.41850000       0.52590000
H        0.75650000       0.12670000       2.13260000
H        0.44470000      -1.50720000       1.48360000
