17
Properties=species:S:1:pos:R:3 gdb_63887=T pbc="F F F"
C       -0.06620000       1.54140000       0.00500000
C        0.02660000       0.01630000      -0.00360000
O       -1.26060000      -0.57430000      -0.03660000
C        0.99350000      -0.57060000      -1.10380000
C        1.99070000      -1.29240000      -0.18090000
O        1.11150000      -1.91370000       0.81120000
C        0.75570000      -0.55870000       1.23010000
C        2.24360000      -0.24490000       0.92900000
O        3.15670000       0.32630000       1.43350000
H        0.91960000       2.00840000       0.09420000
H       -0.52090000       1.90230000      -0.92490000
H       -0.68780000       1.87900000       0.83970000
H       -1.72260000      -0.24220000      -0.81410000
H        0.46010000      -1.28560000      -1.73420000
H        1.46190000       0.19430000      -1.72950000
H        2.74850000      -1.95570000      -0.59310000
H        0.27950000      -0.48920000       2.20540000
