24
Properties=species:S:1:pos:R:3 gdb_8004=T pbc="F F F"
C       -0.10270000       1.54210000      -0.05860000
C        0.06810000       0.02840000       0.05320000
C        0.67470000      -0.63630000      -1.20360000
C        1.40800000      -1.92920000      -0.73020000
C        2.85320000      -1.97130000      -1.24290000
C        1.26150000      -1.91980000       0.82960000
C        2.38580000      -2.57990000       1.62770000
C        1.00750000      -0.44340000       1.17320000
H        0.86280000       2.03250000      -0.23130000
H       -0.76350000       1.80980000      -0.89050000
H       -0.53280000       1.96570000       0.85560000
H       -0.91900000      -0.41790000       0.24040000
H       -0.08030000      -0.83750000      -1.96990000
H        1.40070000       0.05070000      -1.65770000
H        0.89640000      -2.81490000      -1.12370000
H        3.44040000      -1.12630000      -0.86480000
H        3.36770000      -2.89280000      -0.95360000
H        2.86840000      -1.91320000      -2.33670000
H        0.33350000      -2.46080000       1.06170000
H        3.34370000      -2.07030000       1.48110000
H        2.16160000      -2.55530000       2.69960000
H        2.52050000      -3.62980000       1.34490000
H        1.94920000       0.12400000       1.13430000
H        0.58920000      -0.30450000       2.17600000
