16
Properties=species:S:1:pos:R:3 gdb_39911=T pbc="F F F"
C       -0.05260000       1.47840000       0.10710000
C        1.30560000       0.81510000       0.01270000
C        0.04690000      -0.01520000      -0.01480000
N       -0.44930000      -0.80270000       1.13450000
C       -0.70870000      -1.91120000       0.56890000
O       -2.03230000      -2.29000000       0.28620000
C       -1.57050000      -1.94900000      -1.09930000
C       -0.16390000      -2.24100000      -0.86340000
C       -0.40420000      -0.81910000      -1.23950000
H       -0.36440000       1.87160000       1.06690000
H       -0.42120000       2.02450000      -0.75550000
H        1.87460000       0.92400000      -0.90480000
H        1.90370000       0.76090000       0.91490000
H       -2.26940000      -2.20380000      -1.88670000
H        0.51930000      -3.01130000      -1.19370000
H       -0.24290000      -0.45000000      -2.24980000
