14
Properties=species:S:1:pos:R:3 gdb_130984=T pbc="F F F"
O        0.41480000       0.93170000       1.21130000
C        0.50810000       1.71400000       0.30610000
C        1.29080000       1.41580000      -0.97470000
N        1.43310000       2.58200000      -1.82120000
C        2.34660000       3.54280000      -1.51470000
N        2.97020000       3.60210000      -0.35650000
O        3.76240000       4.76510000      -0.49640000
C        3.51660000       5.23570000      -1.71280000
N        2.66350000       4.55130000      -2.40490000
H        0.00720000       2.70730000       0.31530000
H        2.25860000       0.98240000      -0.69060000
H        0.73380000       0.65140000      -1.52570000
H        1.21340000       2.50650000      -2.80010000
H        4.04260000       6.13140000      -2.01060000
