21
Properties=species:S:1:pos:R:3 gdb_100777=T pbc="F F F"
C        0.01420000       1.58140000      -0.04660000
C       -0.00470000       0.04940000       0.03590000
C        0.75850000      -0.44980000       1.26430000
O        2.11220000      -0.03140000       1.15000000
C       -1.43100000      -0.54080000       0.03710000
O       -2.19470000      -0.11020000       1.15200000
C       -2.17900000      -0.23470000      -1.25440000
C       -3.63980000      -0.32270000      -1.33010000
O       -2.98430000       0.95210000      -1.21610000
H        1.04470000       1.93960000      -0.01330000
H       -0.45460000       1.94590000      -0.96470000
H       -0.52090000       2.02040000       0.80250000
H        0.51100000      -0.35810000      -0.84590000
H        0.28570000      -0.04720000       2.17150000
H        0.69220000      -1.54920000       1.31790000
H        2.55410000      -0.21560000       1.98340000
H       -1.34870000      -1.63320000       0.12690000
H       -2.59220000       0.73120000       0.88630000
H       -1.60460000      -0.35640000      -2.17300000
H       -4.12120000      -0.50610000      -2.28850000
H       -4.19560000      -0.63040000      -0.44790000
