16
Properties=species:S:1:pos:R:3 gdb_17600=T pbc="F F F"
N       -0.05960000       1.27260000      -0.31070000
C        0.10780000      -0.06220000      -0.08740000
N        1.26600000      -0.59600000       0.03300000
C       -1.23420000      -0.79100000       0.01250000
O       -2.24480000      -0.14290000       0.21570000
C       -1.25830000      -2.26740000      -0.11940000
C       -2.18990000      -3.03400000       0.81800000
C       -2.55810000      -2.88830000      -0.61470000
H        0.73890000       1.86560000      -0.15430000
H       -0.97610000       1.64060000      -0.10910000
H        1.19440000      -1.60030000       0.17150000
H       -0.33940000      -2.75640000      -0.41380000
H       -1.83640000      -3.99230000       1.18040000
H       -2.72840000      -2.42990000       1.53900000
H       -3.34380000      -2.18350000      -0.86010000
H       -2.46810000      -3.74530000      -1.27170000
