18
Properties=species:S:1:pos:R:3 gdb_54695=T pbc="F F F"
C       -0.01160000       1.47780000       0.26680000
C        0.15540000      -0.01700000       0.06340000
O        1.24430000      -0.53570000      -0.04640000
C       -1.12020000      -0.83700000       0.02880000
C       -1.10240000      -2.29750000      -0.37390000
C       -0.80860000      -3.13890000       0.82280000
C       -0.61420000      -2.23740000       2.02610000
C       -1.71550000      -1.39050000       1.36010000
N       -2.21350000      -2.65110000       0.58460000
H        0.96200000       1.94800000       0.40870000
H       -0.50490000       1.91840000      -0.60790000
H       -0.65700000       1.68370000       1.12850000
H       -1.91400000      -0.30270000      -0.50450000
H       -1.08130000      -2.70180000      -1.37890000
H       -0.55820000      -4.18880000       0.72480000
H       -0.99230000      -2.71380000       2.93400000
H        0.36600000      -1.79000000       2.21060000
H       -2.42180000      -0.79950000       1.93960000
