15
Properties=species:S:1:pos:R:3 gdb_11774=T pbc="F F F"
N        0.01350000      -1.13110000      -0.04450000
C       -0.01240000       0.02380000      -0.02370000
C       -0.02160000       1.47120000       0.04390000
C       -0.88350000       2.26280000       1.06090000
C       -0.74050000       3.27810000      -0.09280000
C        0.75190000       3.66580000      -0.06850000
C        1.33660000       2.22240000       0.04610000
O       -0.74480000       2.14730000      -1.03050000
H       -1.89140000       1.85640000       1.13280000
H       -0.45990000       2.49130000       2.04110000
H       -1.48880000       4.03600000      -0.31580000
H        1.04810000       4.16370000      -0.99310000
H        1.01040000       4.30760000       0.77730000
H        1.91120000       2.04460000       0.95750000
H        1.93870000       1.93380000      -0.81610000
