19
Properties=species:S:1:pos:R:3 gdb_39272=T pbc="F F F"
C       -0.00470000       1.45150000       0.01330000
C        1.33930000       0.73300000      -0.02690000
O        2.13060000       0.50750000      -1.15610000
C        2.37590000      -0.91220000      -1.24280000
C        1.09070000      -1.75980000      -0.97760000
C        0.77750000      -2.04700000       0.53030000
O       -0.10650000      -0.98990000       0.98820000
C        0.05810000      -0.03880000      -0.03540000
C       -0.08630000      -0.83150000      -1.32200000
H       -0.21230000       1.95460000       0.95130000
H       -0.39870000       1.94990000      -0.86630000
H        1.88640000       0.75760000       0.91650000
H        2.73820000      -1.08140000      -2.26110000
H        3.17730000      -1.19260000      -0.54190000
H        1.15080000      -2.69070000      -1.54670000
H        0.25450000      -2.99910000       0.66210000
H        1.68900000      -2.05940000       1.14200000
H        0.06700000      -0.25620000      -2.23400000
H       -1.05050000      -1.34450000      -1.35690000
