21
Properties=species:S:1:pos:R:3 gdb_63688=T pbc="F F F"
C        0.18780000       1.54480000      -0.34720000
C        0.03970000       0.06970000      -0.04900000
O       -1.13350000      -0.49510000      -0.58430000
C        1.25200000      -0.83120000       0.03230000
C        0.41810000      -0.53890000       1.27070000
C        0.97780000       0.24680000       2.43660000
C        1.79390000      -0.64330000       3.39570000
C        2.26580000       0.12350000       4.60810000
O        3.41410000       0.24420000       4.94970000
H        1.09250000       1.96760000       0.09670000
H        0.25020000       1.70850000      -1.43020000
H       -0.67730000       2.10190000       0.02650000
H       -1.05780000      -0.47220000      -1.54520000
H        1.17390000      -1.81820000      -0.40970000
H        2.23500000      -0.37440000      -0.03680000
H       -0.24720000      -1.34880000       1.56000000
H        1.61870000       1.05980000       2.07740000
H        0.15780000       0.72210000       2.99180000
H        1.15340000      -1.46420000       3.75020000
H        2.66060000      -1.08110000       2.89290000
H        1.44390000       0.60310000       5.19230000
