19
Properties=species:S:1:pos:R:3 gdb_87464=T pbc="F F F"
O        0.03300000       1.37880000       0.22170000
C        0.00940000      -0.01620000       0.06850000
C       -0.43670000      -0.79980000       1.29090000
C       -1.29080000      -0.73800000       0.06700000
C       -2.73740000      -0.27230000      -0.17800000
C       -2.52170000      -0.64210000      -1.67790000
C       -1.89770000      -1.81170000      -0.84270000
O       -1.19240000      -2.91310000      -1.28230000
C       -3.17130000      -1.75110000       0.06650000
H       -0.23410000       1.77130000      -0.61580000
H        0.83640000      -0.43050000      -0.51000000
H        0.09150000      -1.71850000       1.52600000
H       -0.73140000      -0.20410000       2.14920000
H       -3.21550000       0.62120000       0.21370000
H       -3.42330000      -0.87530000      -2.25240000
H       -1.82370000      -0.02280000      -2.24650000
H       -1.77880000      -3.46460000      -1.81110000
H       -3.06190000      -2.13130000       1.08390000
H       -4.11690000      -2.05760000      -0.39130000
