14
Properties=species:S:1:pos:R:3 gdb_13576=T pbc="F F F"
C       -0.06390000       1.56670000      -0.29290000
C       -0.04630000       0.09070000       0.00960000
N        1.23230000      -0.59520000      -0.05610000
C        0.58060000      -0.49840000       1.25960000
C        1.23540000       0.37040000       2.27560000
O        2.02380000       1.25610000       2.05730000
C        0.79860000       0.08910000       3.66430000
N        0.45610000      -0.14040000       4.74480000
H        0.83320000       2.05320000       0.09200000
H       -0.09950000       1.71690000      -1.37690000
H       -0.94820000       2.04160000       0.14380000
H       -0.92700000      -0.45960000      -0.32150000
H        1.13540000      -1.54300000      -0.41060000
H        0.09000000      -1.37610000       1.67280000
