18
Properties=species:S:1:pos:R:3 gdb_26235=T pbc="F F F"
C        0.24270000       1.26870000       1.00470000
C       -0.14750000       0.30380000      -0.11350000
O        0.74590000      -0.81910000      -0.18520000
C       -1.56630000      -0.16390000      -0.00920000
C       -2.65410000       0.25500000       0.71780000
C       -3.77240000      -0.56570000       0.36830000
C       -3.31230000      -1.46520000      -0.56470000
O       -3.89380000      -2.49100000      -1.23710000
N       -1.99430000      -1.21990000      -0.80250000
H        1.29410000       1.54660000       0.89850000
H       -0.36450000       2.17820000       0.96880000
H        0.09920000       0.80410000       1.98630000
H        0.01400000       0.80530000      -1.07810000
H        0.62370000      -1.32430000       0.62760000
H       -2.66600000       1.07510000       1.41900000
H       -4.77800000      -0.50170000       0.75430000
H       -4.81040000      -2.55500000      -0.95300000
H       -1.38770000      -1.78290000      -1.37460000
