12
Properties=species:S:1:pos:R:3 gdb_131006=T pbc="F F F"
O       -0.04910000      -0.04140000      -0.00090000
C       -0.02230000       1.14910000       0.00880000
N        1.16870000       1.92010000       0.00270000
C        1.27500000       3.27550000       0.01290000
C        2.62390000       3.52090000       0.00060000
C        3.30450000       4.82520000       0.00410000
O        4.49880000       4.97960000      -0.00740000
N        3.27910000       2.30170000      -0.01640000
N        2.42720000       1.34800000      -0.01500000
H       -0.90940000       1.80680000       0.02340000
H        0.41640000       3.92680000       0.02730000
H        2.60230000       5.68830000       0.01850000
