15
Properties=species:S:1:pos:R:3 gdb_31595=T pbc="F F F"
N        0.26390000       1.37770000      -0.18840000
C        0.05790000       0.01170000      -0.03840000
C       -1.02900000      -0.80320000       0.03770000
O       -2.32910000      -0.42650000       0.07710000
N       -0.63310000      -2.11960000       0.06050000
C        0.66860000      -2.07060000       0.01570000
C        1.62210000      -3.21630000      -0.01240000
O        2.07180000      -3.53330000      -1.32500000
O        1.15920000      -0.81190000      -0.06150000
H        0.64900000       1.82340000       0.63910000
H       -0.59910000       1.84250000      -0.44150000
H       -2.85210000      -1.23590000       0.10600000
H        2.52160000      -2.96510000       0.55620000
H        1.13100000      -4.07160000       0.46930000
H        1.29330000      -3.75410000      -1.84790000
