17
Properties=species:S:1:pos:R:3 gdb_52742=T pbc="F F F"
C       -0.32260000       1.54490000       0.06080000
C       -0.11760000       0.10430000       0.02780000
C        0.06730000      -1.08590000       0.01690000
C        0.23130000      -2.53550000      -0.03100000
C       -1.15830000      -3.18500000       0.07740000
O       -1.49430000      -3.91100000       0.97030000
C        0.89970000      -2.96580000      -1.33370000
C        2.34010000      -3.22440000      -1.40420000
O        1.39580000      -4.29920000      -1.37160000
H        0.56120000       2.06070000       0.45150000
H       -0.52330000       1.94040000      -0.94060000
H       -1.17180000       1.80900000       0.70010000
H        0.82250000      -2.90360000       0.81430000
H       -1.84580000      -2.90970000      -0.75320000
H        0.38300000      -2.64330000      -2.23850000
H        2.86740000      -3.09320000      -2.34740000
H        2.94770000      -3.10930000      -0.50800000
