15
Properties=species:S:1:pos:R:3 gdb_54087=T pbc="F F F"
N       -0.15030000       0.18100000      -1.22100000
C       -0.27930000       0.06110000       0.11620000
O        0.46740000       0.55430000       0.94290000
C       -1.52090000      -0.75840000       0.56170000
N       -1.51750000      -2.14140000       0.12990000
C       -1.85530000      -2.54040000      -1.11320000
O       -2.04880000      -1.79100000      -2.05890000
C       -1.58440000      -0.73060000       2.08540000
O       -1.64400000      -1.73520000       2.74700000
H        0.66290000       0.65640000      -1.57850000
H       -0.78330000      -0.31260000      -1.84270000
H       -2.41550000      -0.25270000       0.16670000
H       -1.46100000      -2.81240000       0.88690000
H       -1.93330000      -3.63830000      -1.20070000
H       -1.57440000       0.27620000       2.53410000
