18
Properties=species:S:1:pos:R:3 gdb_128684=T pbc="F F F"
C        0.07360000       1.39210000       0.03070000
O        0.08270000      -0.03040000      -0.00620000
C        0.68740000      -0.63510000       1.03380000
N        1.24400000       0.02630000       2.03250000
N        1.68480000      -0.97500000       2.86060000
C        1.43150000      -2.21230000       2.36300000
N        1.87920000      -3.35930000       3.02520000
C        0.75660000      -2.04860000       1.16770000
C        0.19740000      -3.08690000       0.24890000
H        1.09340000       1.79160000       0.03040000
H       -0.45670000       1.71400000      -0.86700000
H       -0.43950000       1.75860000       0.92620000
H        2.32340000      -0.74400000       3.60090000
H        1.57700000      -3.40410000       3.99190000
H        1.58500000      -4.20140000       2.54800000
H       -0.04390000      -4.01210000       0.78630000
H       -0.72540000      -2.73040000      -0.21850000
H        0.88580000      -3.35320000      -0.56320000
