13
Properties=species:S:1:pos:R:3 gdb_3760=T pbc="F F F"
C       -0.01570000       1.42410000      -0.02770000
N        0.00590000      -0.01900000       0.01600000
N        0.05120000      -0.76840000      -1.13110000
C        0.03130000      -1.99750000      -0.65570000
N       -0.00440000      -2.10910000       0.70240000
C       -0.01530000      -0.84320000       1.08710000
N       -0.12020000      -0.38980000       2.39190000
H        0.99320000       1.85000000       0.02520000
H       -0.47660000       1.73000000      -0.96720000
H       -0.61120000       1.80160000       0.80800000
H        0.04680000      -2.85540000      -1.31170000
H       -0.04070000      -1.16140000       3.04100000
H        0.52200000       0.35290000       2.63520000
