25
Properties=species:S:1:pos:R:3 gdb_101474=T pbc="F F F"
C       -0.14500000       1.54390000       0.06460000
C        0.01530000       0.02390000      -0.03380000
C        0.85470000      -0.46520000      -1.23210000
C        2.30950000       0.01790000      -1.15020000
C        0.75050000      -1.99580000      -1.34790000
C        1.35970000      -2.65190000      -2.59480000
C        1.66150000      -4.06950000      -2.08930000
C        2.08140000      -3.80220000      -0.63700000
O        1.40670000      -2.61230000      -0.23080000
H        0.80790000       2.04940000       0.24790000
H       -0.56860000       1.95910000      -0.85760000
H       -0.81750000       1.81090000       0.88620000
H        0.46110000      -0.36720000       0.88850000
H       -0.98150000      -0.43090000      -0.10410000
H        0.39860000      -0.05830000      -2.14770000
H        2.36000000       1.10790000      -1.08490000
H        2.79880000      -0.40250000      -0.26690000
H        2.89120000      -0.27480000      -2.02950000
H       -0.32060000      -2.25970000      -1.30660000
H        0.67710000      -2.63060000      -3.44800000
H        2.28540000      -2.14750000      -2.88940000
H        0.75580000      -4.68470000      -2.11830000
H        2.43520000      -4.58460000      -2.66390000
H        1.80990000      -4.61910000       0.04190000
H        3.16780000      -3.64790000      -0.55910000
