19
Properties=species:S:1:pos:R:3 gdb_97389=T pbc="F F F"
C       -0.02930000       1.37130000       0.01550000
N        0.05120000      -0.07350000       0.06480000
C        0.55100000      -0.65820000      -0.92820000
O        0.65650000      -2.00800000      -0.94820000
C        1.22490000      -2.57770000      -2.09170000
C        2.64650000      -2.43160000      -2.68590000
N        1.98210000      -3.47820000      -3.59330000
C        1.42300000      -4.08030000      -2.28760000
C        0.74500000      -2.56800000      -3.56310000
H        0.52110000       1.79770000       0.86170000
H        0.36790000       1.81270000      -0.91360000
H       -1.07390000       1.68360000       0.12570000
H        0.93120000      -0.15640000      -1.83040000
H        2.90460000      -1.50750000      -3.20830000
H        3.48720000      -2.82300000      -2.10890000
H        2.17850000      -4.58370000      -1.68090000
H        0.53760000      -4.70130000      -2.43780000
H       -0.18580000      -3.08640000      -3.80330000
H        0.86620000      -1.65370000      -4.14870000
