19
Properties=species:S:1:pos:R:3 gdb_13016=T pbc="F F F"
C       -0.20480000       1.43050000       0.02580000
C       -0.01770000      -0.06480000       0.01030000
C       -0.76920000      -0.95780000       0.93120000
N        0.66570000      -0.71120000       1.14960000
C        1.52900000      -1.77670000       0.59840000
C        1.08890000      -2.04390000      -0.85640000
C        0.44650000      -0.70790000      -1.29210000
O       -0.65480000      -0.84120000      -2.17960000
H        0.72320000       1.94530000      -0.24910000
H       -0.97860000       1.72070000      -0.69270000
H       -0.50270000       1.77790000       1.01810000
H       -1.41820000      -0.51550000       1.68180000
H       -1.09510000      -1.93150000       0.57600000
H        2.55950000      -1.40590000       0.63100000
H        1.48160000      -2.66790000       1.23230000
H        1.92290000      -2.34260000      -1.49720000
H        0.33100000      -2.83030000      -0.91910000
H        1.21020000      -0.05190000      -1.74040000
H       -0.31690000      -1.11830000      -3.03680000
