18
Properties=species:S:1:pos:R:3 gdb_14671=T pbc="F F F"
C        0.03270000       1.56190000      -0.07950000
C        0.00930000       0.03210000       0.09300000
C       -1.34170000      -0.51480000       0.17280000
C       -2.46820000      -0.93560000       0.24150000
C       -3.81680000      -1.48400000       0.31410000
C       -3.91330000      -2.90820000      -0.28320000
C       -5.33850000      -3.41210000      -0.30320000
O       -5.70440000      -4.47020000       0.13770000
H        1.06370000       1.92400000      -0.13350000
H       -0.48510000       1.85780000      -0.99600000
H       -0.46250000       2.05510000       0.76130000
H        0.54330000      -0.43840000      -0.74260000
H        0.56720000      -0.24270000       0.99750000
H       -4.15440000      -1.50790000       1.35830000
H       -4.51630000      -0.82270000      -0.21530000
H       -3.55610000      -2.87560000      -1.32150000
H       -3.28920000      -3.61510000       0.26810000
H       -6.06470000      -2.70880000      -0.77790000
