16
Properties=species:S:1:pos:R:3 gdb_52299=T pbc="F F F"
O        0.43580000       0.21140000      -0.68540000
C        0.38170000       1.38930000      -0.50230000
O        0.91990000       1.97520000       0.59100000
C        0.90450000       3.40320000       0.64930000
C        2.23210000       3.95810000       0.15500000
N        2.45060000       3.81400000      -1.30960000
C        2.76910000       5.25790000      -1.49000000
C        2.32850000       5.48740000      -0.03670000
O        2.10820000       6.43560000       0.65220000
H       -0.10980000       2.11260000      -1.17780000
H        0.08180000       3.80040000       0.04310000
H        0.73810000       3.67830000       1.69380000
H        3.04780000       3.57370000       0.78300000
H        3.21020000       3.19040000      -1.55310000
H        3.83000000       5.49760000      -1.64360000
H        2.18020000       5.76440000      -2.26210000
