16
Properties=species:S:1:pos:R:3 gdb_7766=T pbc="F F F"
C       -0.00670000       1.51270000       0.07710000
C        0.00160000       0.00090000      -0.07210000
C        0.84000000      -0.50300000      -1.24560000
C        0.98960000      -1.99450000      -1.16040000
C        0.88710000      -2.61660000       0.01570000
C        0.73920000      -1.86330000       1.28280000
O        0.89310000      -2.35900000       2.36930000
O        0.48390000      -0.53110000       1.18120000
H        1.00930000       1.88970000       0.22750000
H       -0.42470000       1.98080000      -0.81930000
H       -0.61260000       1.80550000       0.93800000
H       -1.02710000      -0.36340000      -0.20590000
H        0.35640000      -0.21340000      -2.18520000
H        1.82980000      -0.02340000      -1.24560000
H        1.19800000      -2.55270000      -2.06910000
H        0.99840000      -3.68770000       0.13240000
