20
Properties=species:S:1:pos:R:3 gdb_102027=T pbc="F F F"
C       -0.25210000       0.79080000       0.74640000
C        0.38440000      -0.49010000       0.20750000
N        0.65730000      -0.43610000      -1.23750000
C        1.91840000      -0.07500000      -1.64520000
N        2.29990000       0.05050000      -2.86080000
C       -0.46400000      -0.72660000      -2.08150000
O       -1.53490000      -1.00910000      -1.56770000
N       -0.22410000      -0.66140000      -3.40730000
C       -1.26980000      -0.92280000      -4.37410000
H        0.39630000       1.65790000       0.58230000
H       -1.20950000       0.96760000       0.25210000
H       -0.43090000       0.69780000       1.82240000
H        1.33270000      -0.69440000       0.71330000
H       -0.28030000      -1.33660000       0.38040000
H        2.58110000       0.09430000      -0.79060000
H        3.27920000       0.31470000      -2.90470000
H        0.71810000      -0.40100000      -3.69710000
H       -1.00390000      -1.76450000      -5.02390000
H       -2.18390000      -1.16740000      -3.83290000
H       -1.45240000      -0.04490000      -5.00470000
