16
Properties=species:S:1:pos:R:3 gdb_124087=T pbc="F F F"
C       -0.04520000       1.37020000      -0.33720000
O        1.30220000       1.62830000       0.10110000
C        1.43950000       0.30290000       0.64770000
C        0.06070000      -0.11500000       0.08330000
N       -0.92420000      -0.64270000       0.99630000
C       -1.36610000      -0.16370000       2.18170000
N       -2.28160000      -0.96380000       2.69440000
C       -2.36840000      -1.94810000       1.75800000
N       -1.57150000      -1.80410000       0.71290000
H       -0.78880000       1.94650000       0.22780000
H       -0.17890000       1.55920000      -1.40760000
H        2.30700000      -0.22800000       0.24150000
H        1.49620000       0.30390000       1.74360000
H        0.10580000      -0.81750000      -0.74580000
H       -1.00040000       0.75140000       2.62260000
H       -3.03550000      -2.79230000       1.84850000
