21
Properties=species:S:1:pos:R:3 gdb_79863=T pbc="F F F"
C        0.05000000       1.51280000      -0.02630000
C        0.03130000       0.00780000      -0.03260000
C        0.57940000      -0.94870000      -1.12630000
O        1.94240000      -0.94800000      -1.46700000
C        0.01880000      -1.89520000      -0.03960000
C        0.60790000      -0.96140000       1.06900000
C       -0.33570000      -0.95850000       2.27360000
C       -1.70210000      -0.94580000       1.53310000
C       -1.21190000      -0.94210000       0.08420000
H        1.07360000       1.88850000      -0.13380000
H       -0.53970000       1.91700000      -0.85670000
H       -0.36080000       1.92000000       0.90460000
H        0.03930000      -0.93940000      -2.07800000
H        2.46390000      -1.00860000      -0.66030000
H        0.00070000      -2.98690000      -0.03450000
H        1.68100000      -0.96830000       1.27980000
H       -0.20260000      -1.84330000       2.90420000
H       -0.18920000      -0.07980000       2.91030000
H       -2.31410000      -1.82480000       1.75860000
H       -2.30300000      -0.06120000       1.76760000
H       -1.95390000      -0.93380000      -0.71770000
