15
Properties=species:S:1:pos:R:3 gdb_53923=T pbc="F F F"
C       -0.50750000       1.55970000      -0.13520000
C        0.13150000       0.15490000      -0.01770000
C        1.12950000       0.15170000       1.06980000
N        1.93730000       0.15210000       1.89560000
C       -0.91150000      -0.83990000       0.30140000
N       -1.74760000      -1.60090000       0.53600000
C        0.82460000      -0.27700000      -1.34800000
N        1.58310000      -1.41160000      -1.23040000
N        0.56360000       0.40530000      -2.38640000
H        0.26920000       2.29250000      -0.35470000
H       -1.22380000       1.55440000      -0.95500000
H       -1.00570000       1.81660000       0.80120000
H        1.93520000      -1.68480000      -0.32600000
H        2.15560000      -1.67930000      -2.01510000
H        1.03910000       0.04330000      -3.21410000
