22
Properties=species:S:1:pos:R:3 gdb_79822=T pbc="F F F"
C       -0.37850000       1.53550000      -0.00010000
C        0.03440000       0.07200000       0.03380000
N        0.97240000      -0.42540000      -1.03800000
C        2.38900000      -0.21390000      -0.61120000
C        2.76690000       0.84130000       0.41990000
C        1.94770000       0.44560000       1.67620000
C        0.90220000      -0.56380000       1.16470000
C        0.18670000      -1.35010000       2.24530000
C        1.61840000      -1.30940000       0.00120000
H        0.45080000       2.22700000       0.15940000
H       -0.81910000       1.76410000      -0.97650000
H       -1.13810000       1.73640000       0.76370000
H       -0.86950000      -0.53710000      -0.08850000
H        3.07010000      -0.41500000      -1.43210000
H        3.84450000       0.79590000       0.60990000
H        2.55670000       1.85630000       0.06990000
H        2.59250000      -0.04030000       2.41780000
H        1.47960000       1.30450000       2.16870000
H       -0.38250000      -0.68540000       2.90550000
H       -0.51500000      -2.07320000       1.81630000
H        0.89810000      -1.90240000       2.87030000
H        1.75210000      -2.37700000      -0.13460000
