11
Properties=species:S:1:pos:R:3 gdb_15462=T pbc="F F F"
O       -0.02740000      -0.01120000       0.00400000
C        0.01370000       1.17990000       0.00960000
O       -1.09980000       1.97830000       0.02770000
C       -0.73020000       3.35260000       0.03000000
C        0.76560000       3.36160000       0.01130000
C        1.20180000       2.09690000      -0.00060000
C        2.53800000       1.62280000      -0.01980000
N        3.62730000       1.23370000      -0.03540000
H       -1.16160000       3.84760000      -0.84940000
H       -1.13930000       3.83850000       0.92500000
H        1.36220000       4.26360000       0.00850000
