17
Properties=species:S:1:pos:R:3 gdb_55037=T pbc="F F F"
N        0.42660000       0.92300000      -0.72510000
C        0.05790000       0.04890000       0.25360000
O        0.82400000      -0.34300000       1.11120000
C       -1.38080000      -0.40680000       0.13760000
O       -1.75860000      -1.52890000       0.92390000
C       -2.38500000      -0.29080000       1.22830000
C       -2.18090000       0.30270000       2.58810000
C       -2.18840000      -0.61210000       3.76500000
N       -0.97000000       0.10230000       3.37760000
H        1.34420000       1.33420000      -0.66980000
H       -0.23200000       1.30560000      -1.38110000
H       -1.76550000      -0.42740000      -0.88470000
H       -3.42250000      -0.22360000       0.88740000
H       -2.63400000       1.28850000       2.68780000
H       -2.64450000      -0.29140000       4.69760000
H       -2.25210000      -1.67750000       3.55930000
H       -0.32660000      -0.50620000       2.87360000
