18
Properties=species:S:1:pos:R:3 gdb_23276=T pbc="F F F"
O       -0.24290000       1.28090000       0.28580000
N       -0.01980000      -0.11200000       0.12170000
C       -1.12720000      -0.71720000      -0.05580000
C       -1.22950000      -2.18300000      -0.21270000
C       -2.15220000      -2.85540000       0.80040000
C       -2.67980000      -2.49000000      -0.55260000
C       -3.44270000      -1.17320000      -0.66220000
C       -2.51300000      -0.07550000      -0.10210000
O       -2.93890000       0.30580000       1.20420000
H        0.65320000       1.61830000       0.38380000
H       -0.38980000      -2.73950000      -0.60850000
H       -1.95140000      -3.90160000       1.00290000
H       -2.47660000      -2.27470000       1.65710000
H       -2.91740000      -3.28390000      -1.25120000
H       -3.66890000      -0.96340000      -1.71230000
H       -4.38800000      -1.17550000      -0.11200000
H       -2.48910000       0.80240000      -0.75900000
H       -2.28850000       0.94590000       1.51860000
