21
Properties=species:S:1:pos:R:3 gdb_120944=T pbc="F F F"
O       -0.01650000       1.46670000      -0.08900000
C        0.03450000       0.05570000       0.06530000
C       -1.37290000      -0.49210000      -0.13550000
C       -1.45040000      -2.00760000       0.01470000
C       -1.30490000      -2.67480000       1.43150000
C       -2.62960000      -3.41320000       1.20610000
C       -3.73820000      -2.40140000       1.01240000
C       -2.81000000      -2.70830000      -0.13000000
O       -3.26030000      -3.25630000      -1.32010000
H        0.86900000       1.81610000       0.04650000
H        0.71800000      -0.40090000      -0.66980000
H        0.40360000      -0.22160000       1.06630000
H       -2.04040000       0.00150000       0.58090000
H       -1.71590000      -0.20070000      -1.13670000
H       -0.74880000      -2.48610000      -0.67790000
H       -0.43500000      -3.33010000       1.50840000
H       -1.29900000      -1.98290000       2.28130000
H       -2.84000000      -4.44130000       1.47210000
H       -4.72620000      -2.83620000       0.89560000
H       -3.72220000      -1.44930000       1.53890000
H       -3.85250000      -2.62400000      -1.74100000
