25
Properties=species:S:1:pos:R:3 gdb_96152=T pbc="F F F"
C        0.00480000       1.59380000      -0.00500000
C       -0.02110000       0.05850000       0.01810000
C        0.64100000      -0.49050000      -1.26270000
C        0.60390000      -2.00970000      -1.50390000
C        1.35220000      -2.85340000      -0.45540000
C        0.54770000      -3.05690000       0.81570000
C        1.16080000      -2.91850000       2.18860000
C        0.18990000      -1.87610000       1.68520000
C        0.63780000      -0.47620000       1.30980000
H        1.03530000       1.96910000       0.02000000
H       -0.46850000       1.98960000      -0.90980000
H       -0.51990000       2.01330000       0.85990000
H       -1.07390000      -0.26080000       0.02210000
H        0.17040000       0.00050000      -2.12450000
H        1.69160000      -0.16220000      -1.27110000
H       -0.43850000      -2.35130000      -1.56410000
H        1.04130000      -2.19780000      -2.49250000
H        1.59920000      -3.83420000      -0.88000000
H        2.31400000      -2.37670000      -0.22840000
H       -0.22860000      -3.81280000       0.72030000
H        0.84100000      -3.59440000       2.97470000
H        2.20950000      -2.64120000       2.24440000
H       -0.80470000      -1.90880000       2.12420000
H        1.72890000      -0.43940000       1.19490000
H        0.40580000       0.20030000       2.14240000
