19
Properties=species:S:1:pos:R:3 gdb_108216=T pbc="F F F"
O       -0.02530000       1.39750000      -0.09140000
C       -0.00360000      -0.01560000       0.00300000
C       -1.40160000      -0.58050000       0.11320000
C       -2.25550000      -0.12230000       1.30930000
O       -3.38000000      -1.02830000       1.27590000
C       -3.15880000      -1.87710000       0.14310000
C       -3.30950000      -1.01790000      -1.11870000
O       -2.12450000      -0.19530000      -1.08160000
C       -1.63750000      -2.09810000       0.16470000
H       -0.62110000       1.60670000      -0.82060000
H        0.49790000      -0.47150000      -0.86450000
H        0.57430000      -0.26550000       0.89860000
H       -1.73180000      -0.21740000       2.26900000
H       -2.59310000       0.91010000       1.18480000
H       -3.81650000      -2.74290000       0.21310000
H       -3.32420000      -1.60550000      -2.04580000
H       -4.20750000      -0.39340000      -1.06990000
H       -1.24190000      -2.61720000      -0.71080000
H       -1.29790000      -2.57500000       1.08570000
