18
Properties=species:S:1:pos:R:3 gdb_111179=T pbc="F F F"
C        0.06100000       1.53480000       0.20860000
C       -0.16110000       0.03690000      -0.03270000
C        0.58990000      -0.47310000      -1.24990000
C        2.11020000      -0.79100000      -1.12870000
O        1.78740000      -1.96680000      -0.29560000
C        0.82190000      -2.00130000      -1.41420000
C        2.02290000      -1.72850000      -2.37550000
C        1.80880000      -1.18820000      -3.70580000
N        1.64050000      -0.76020000      -4.76670000
H        1.11710000       1.75570000       0.39700000
H       -0.25320000       2.13030000      -0.65550000
H       -0.50880000       1.88000000       1.07610000
H        0.14830000      -0.53990000       0.84350000
H       -1.23160000      -0.15430000      -0.17980000
H        0.30250000       0.05220000      -2.16610000
H        2.94840000      -0.16520000      -0.82390000
H        0.11190000      -2.82740000      -1.44950000
H        2.76890000      -2.52360000      -2.36800000
