18
Properties=species:S:1:pos:R:3 gdb_52261=T pbc="F F F"
O       -0.27380000       0.10200000      -0.04490000
C       -0.02330000       1.27710000       0.02420000
C        1.35220000       1.88300000      -0.13070000
C        1.38890000       2.94070000      -1.24630000
C        2.72080000       3.67940000      -1.33030000
C        2.75300000       4.83270000      -2.37100000
N        2.90770000       6.06560000      -1.57920000
C        3.01800000       5.68740000      -0.37670000
O        2.97320000       4.36720000      -0.07030000
H       -0.83150000       2.02400000       0.21160000
H        1.61340000       2.37230000       0.81720000
H        2.07110000       1.07880000      -0.31320000
H        1.20050000       2.46770000      -2.21800000
H        0.59080000       3.67890000      -1.09290000
H        3.54090000       2.96780000      -1.46780000
H        3.58620000       4.74010000      -3.07490000
H        1.83080000       4.88010000      -2.96090000
H        3.15510000       6.33940000       0.47890000
