23
Properties=species:S:1:pos:R:3 gdb_65029=T pbc="F F F"
C        0.00820000       1.55600000      -0.13670000
C       -0.02390000       0.03070000      -0.03720000
C        1.00950000      -0.62540000      -1.01670000
C        2.01780000      -0.74860000       0.15670000
C        0.85870000      -0.48070000       1.15330000
C       -1.42310000      -0.55910000      -0.09520000
O       -1.33000000      -1.96460000       0.00510000
C       -2.61670000       0.10530000       0.54210000
C       -2.51130000       0.00430000      -0.97300000
H        1.04290000       1.90940000      -0.08840000
H       -0.41050000       1.91590000      -1.08230000
H       -0.53350000       2.03380000       0.68620000
H        0.66410000      -1.59860000      -1.36730000
H        1.30990000      -0.02090000      -1.87750000
H        2.53840000      -1.70350000       0.25650000
H        2.76720000       0.04760000       0.15570000
H        1.04310000       0.23500000       1.95970000
H        0.45940000      -1.40220000       1.57840000
H       -2.21560000      -2.33690000      -0.03170000
H       -3.33130000      -0.53940000       1.04550000
H       -2.51300000       1.08210000       1.00010000
H       -2.33660000       0.91280000      -1.53730000
H       -3.15570000      -0.70790000      -1.48030000
