14
Properties=species:S:1:pos:R:3 gdb_3053=T pbc="F F F"
O        0.06110000       0.14020000       0.51090000
C        0.18390000       1.22860000       0.03840000
O        0.64890000       2.28110000       0.73860000
C        0.77520000       3.54300000       0.06590000
C        2.22160000       3.91890000      -0.10310000
C        2.61080000       5.34870000       0.01010000
N        3.00780000       4.38490000       1.04450000
H       -0.07230000       1.49020000      -1.00800000
H        0.26950000       3.49720000      -0.90810000
H        0.25390000       4.28080000       0.68570000
H        2.77980000       3.27540000      -0.78050000
H        3.42380000       5.73640000      -0.59610000
H        1.83030000       6.07230000       0.23420000
H        2.41400000       4.47350000       1.86610000
