20
Properties=species:S:1:pos:R:3 gdb_74927=T pbc="F F F"
C        0.15190000       1.48190000       0.03290000
C        0.00870000      -0.00470000      -0.02380000
C       -0.11890000      -0.79360000      -1.09430000
C       -0.05540000      -2.22680000      -0.64170000
C        1.40360000      -2.53880000      -0.16910000
C        0.93880000      -2.08250000       1.20240000
N       -0.51790000      -2.21350000       0.82250000
C        0.01630000      -0.88350000       1.19610000
C       -0.43920000      -0.34310000       2.52950000
H        1.11000000       1.77230000       0.48280000
H        0.10200000       1.92170000      -0.96650000
H       -0.63230000       1.94170000       0.64610000
H       -0.09730000      -0.48400000      -2.13230000
H       -0.55580000      -2.97120000      -1.25990000
H        1.59340000      -3.61480000      -0.15850000
H        2.23160000      -2.02110000      -0.66280000
H        1.31920000      -2.46830000       2.14490000
H        0.23830000       0.43650000       2.89410000
H       -1.44450000       0.08420000       2.45280000
H       -0.47250000      -1.14200000       3.27490000
