17
Properties=species:S:1:pos:R:3 gdb_74110=T pbc="F F F"
N        0.09310000       1.34540000      -0.22540000
C       -0.00660000      -0.01210000      -0.06930000
C       -1.18170000      -0.68670000      -0.08360000
C       -1.24410000      -2.13430000       0.03000000
O       -2.28040000      -2.75400000       0.21300000
C        0.05820000      -2.87500000      -0.10520000
C        0.85170000      -2.66410000      -1.35950000
N        1.34330000      -2.16120000      -0.08860000
C        1.31650000      -0.72220000       0.13490000
H        0.92840000       1.80310000       0.10390000
H       -0.74850000       1.89310000      -0.13270000
H       -2.13050000      -0.16210000      -0.14800000
H        0.05950000      -3.85490000       0.36300000
H        1.41690000      -3.49110000      -1.77980000
H        0.44730000      -1.96000000      -2.08360000
H        2.07520000      -0.26450000      -0.51260000
H        1.63970000      -0.53690000       1.16960000
