17
Properties=species:S:1:pos:R:3 gdb_35261=T pbc="F F F"
N        0.51170000      -0.60330000       1.74520000
C        0.38410000       0.30020000       1.03510000
C        0.18620000       1.40310000       0.12480000
N        0.53750000       2.75480000       0.59950000
C        1.30810000       2.17290000      -0.49940000
C        2.77670000       1.87820000      -0.26960000
C        3.31010000       1.58350000       1.14660000
C        3.77890000       0.24790000       0.53450000
O        3.15200000       0.56380000      -0.73510000
H       -0.70630000       1.28750000      -0.48510000
H       -0.14690000       3.42780000       0.26540000
H        1.08270000       2.51800000      -1.50770000
H        3.35450000       2.65350000      -0.79370000
H        4.09360000       2.25920000       1.49090000
H        2.54740000       1.49810000       1.91860000
H        4.86460000       0.13660000       0.42900000
H        3.35660000      -0.65980000       0.97550000
