17
Properties=species:S:1:pos:R:3 gdb_13546=T pbc="F F F"
C        0.04990000       1.54650000      -0.24470000
C        0.01450000       0.06010000       0.01760000
N        1.29310000      -0.67290000      -0.01240000
C        0.53850000      -0.59380000       1.24590000
C        1.18820000       0.18240000       2.38360000
O        0.21400000       0.85060000       3.18380000
C        2.03850000      -0.69690000       3.19170000
C        2.68220000      -1.44950000       3.87350000
H        0.96170000       2.00100000       0.14800000
H        0.01960000       1.74380000      -1.32150000
H       -0.80970000       2.04110000       0.21860000
H       -0.84400000      -0.44500000      -0.42530000
H        1.18740000      -1.58830000      -0.43970000
H        0.01600000      -1.48960000       1.58110000
H        1.80530000       0.97460000       1.95020000
H       -0.19860000       0.19060000       3.75150000
H        3.27390000      -2.09740000       4.47220000
