19
Properties=species:S:1:pos:R:3 gdb_40228=T pbc="F F F"
C       -0.33130000       1.47670000       0.11710000
N        1.05310000       1.00580000      -0.09790000
C       -0.03490000       0.03040000      -0.02930000
C       -0.09030000      -0.94620000       1.15330000
O       -0.63670000      -2.16260000       0.65270000
C       -1.32200000      -1.88530000      -0.56340000
C       -0.50460000      -0.78840000      -1.21350000
C       -0.68470000      -0.26110000      -2.57890000
N        0.41620000      -1.20160000      -2.28540000
H       -0.51940000       1.88990000       1.10530000
H       -0.84490000       1.98560000      -0.69380000
H        1.33180000       1.17250000      -1.06450000
H        0.90780000      -1.14980000       1.55280000
H       -0.71630000      -0.54660000       1.96480000
H       -1.34810000      -2.79750000      -1.16280000
H       -2.35340000      -1.54500000      -0.36950000
H       -1.46720000      -0.65460000      -3.22250000
H       -0.44420000       0.78450000      -2.76360000
H        1.29910000      -0.69910000      -2.21320000
