14
Properties=species:S:1:pos:R:3 gdb_1909=T pbc="F F F"
C        0.01130000       1.54690000       0.04940000
C       -0.03990000       0.05190000      -0.03070000
C       -0.86030000      -0.80150000       0.83750000
N        0.62710000      -0.83220000       1.04660000
C        1.13670000      -1.66030000      -0.03340000
O        1.84710000      -2.61320000       0.02800000
C        0.56310000      -0.78760000      -1.16270000
H        1.00620000       1.92150000      -0.21210000
H       -0.71060000       1.99440000      -0.64330000
H       -0.22890000       1.89090000       1.05900000
H       -1.37370000      -0.34260000       1.67630000
H       -1.34500000      -1.69270000       0.44530000
H       -0.12150000      -1.25870000      -1.87280000
H        1.36140000      -0.28310000      -1.71400000
