16
Properties=species:S:1:pos:R:3 gdb_47175=T pbc="F F F"
N        0.10310000       1.20190000       0.62650000
C       -0.02880000       0.03630000       0.16220000
C       -1.35190000      -0.64540000       0.01090000
C       -1.54650000      -1.93830000       0.81440000
O       -2.67430000      -2.36620000       0.95370000
C       -0.42420000      -2.67680000       1.44720000
C        0.90080000      -2.49360000       1.39100000
C        1.71590000      -1.49110000       0.63540000
O        1.01720000      -0.72890000      -0.33150000
H        1.08650000       1.48310000       0.60950000
H       -2.16350000       0.03240000       0.27770000
H       -1.47790000      -0.92080000      -1.04420000
H       -0.80090000      -3.49600000       2.05380000
H        1.51970000      -3.16520000       1.98580000
H        2.22080000      -0.82980000       1.36090000
H        2.50890000      -2.01180000       0.08660000
