19
Properties=species:S:1:pos:R:3 gdb_40169=T pbc="F F F"
C       -0.27180000       1.32350000       0.21170000
C        1.19210000       1.10650000      -0.13210000
C        0.25190000      -0.05440000      -0.08580000
O        0.45030000      -0.93750000       1.00010000
C       -0.45430000      -2.04400000       1.01880000
C       -0.78660000      -2.47680000      -0.40580000
C        0.41170000      -2.21010000      -1.34100000
C       -0.19610000      -0.79090000      -1.32290000
O       -1.50630000      -1.37110000      -1.02680000
H       -0.50870000       1.53630000       1.24760000
H       -0.91560000       1.80690000      -0.51550000
H        1.55820000       1.44180000      -1.09680000
H        1.91000000       1.17580000       0.67730000
H        0.05020000      -2.83910000       1.57870000
H       -1.38900000      -1.78060000       1.53500000
H       -1.33490000      -3.42120000      -0.45320000
H        1.42170000      -2.34720000      -0.95280000
H        0.28640000      -2.69390000      -2.30980000
H       -0.20230000      -0.17070000      -2.22240000
