17
Properties=species:S:1:pos:R:3 gdb_72365=T pbc="F F F"
C        0.07290000       1.57800000      -0.09470000
C       -0.04250000       0.06920000       0.06610000
C       -1.48610000      -0.49010000       0.03650000
C       -1.50390000      -1.50260000       1.15700000
C       -0.35390000      -1.56730000       1.83080000
C        0.66180000      -0.63040000       1.25860000
O        1.59820000      -1.29700000       0.31580000
C        0.97050000      -0.73640000      -0.76440000
O        1.22870000      -0.88690000      -1.91640000
H        1.10920000       1.91580000       0.00360000
H       -0.28460000       1.88220000      -1.08340000
H       -0.52970000       2.09450000       0.65960000
H       -2.21950000       0.30900000       0.20570000
H       -1.73800000      -0.93750000      -0.93220000
H       -2.38070000      -2.10560000       1.36850000
H       -0.14520000      -2.22180000       2.66820000
H        1.23770000      -0.03360000       1.96810000
