23
Properties=species:S:1:pos:R:3 gdb_59356=T pbc="F F F"
C       -0.16090000       1.49620000       0.08940000
C       -0.01220000      -0.02750000      -0.01790000
C        0.68530000      -0.42740000      -1.32550000
C        0.72910000      -0.58570000       1.19720000
C        0.08160000      -0.46810000       2.60940000
C        0.59910000      -1.89870000       2.92480000
O       -0.24130000      -2.80830000       3.58260000
C        0.81170000      -2.12460000       1.39440000
O       -0.32900000      -2.75920000       0.82340000
H        0.81960000       1.98820000       0.08680000
H       -0.73290000       1.89500000      -0.75500000
H       -0.67660000       1.78790000       1.00990000
H       -1.01470000      -0.47250000      -0.02290000
H        1.71030000      -0.03760000      -1.36140000
H        0.72920000      -1.51500000      -1.43020000
H        0.15090000      -0.02730000      -2.19380000
H        1.74860000      -0.18020000       1.21670000
H        0.40570000       0.34410000       3.26360000
H       -1.01180000      -0.45540000       2.54860000
H        1.54480000      -1.88390000       3.47380000
H       -1.01560000      -2.90440000       3.01330000
H        1.73270000      -2.62580000       1.07360000
H       -0.23090000      -3.70620000       0.96690000
