21
Properties=species:S:1:pos:R:3 gdb_116973=T pbc="F F F"
C        0.22700000       1.54280000      -0.08550000
C        0.30950000       0.01620000      -0.03420000
C        0.21420000      -0.52860000       1.40580000
C        0.29460000      -1.98350000       1.47910000
C        0.35430000      -3.18620000       1.50800000
C        0.45890000      -4.63900000       1.56210000
C        1.87520000      -5.12100000       1.95690000
C        1.93060000      -6.62240000       2.12440000
O        2.73510000      -7.34780000       1.60060000
H        1.03950000       2.00440000       0.48690000
H        0.29650000       1.90770000      -1.11450000
H       -0.71890000       1.90470000       0.33290000
H       -0.49440000      -0.42600000      -0.63330000
H        1.24990000      -0.32650000      -0.48000000
H        1.01540000      -0.08590000       2.01320000
H       -0.72680000      -0.18890000       1.85960000
H       -0.27120000      -5.03800000       2.27960000
H        0.19100000      -5.06830000       0.58800000
H        2.62120000      -4.81310000       1.22080000
H        2.14080000      -4.66790000       2.92170000
H        1.14260000      -7.03570000       2.79950000
