16
Properties=species:S:1:pos:R:3 gdb_68131=T pbc="F F F"
O       -0.10330000       1.41700000      -0.00140000
C       -0.01490000       0.03510000       0.01150000
C        0.34070000      -0.80440000       1.29630000
C       -0.34860000      -1.92660000       0.43320000
C       -1.33300000      -0.79270000      -0.04950000
C        0.61800000      -1.98970000      -0.77090000
C        0.83320000      -0.70440000      -1.04550000
C       -0.82360000      -3.15690000       1.01740000
N       -1.20490000      -4.14150000       1.48870000
H        0.78510000       1.78730000       0.03820000
H        1.39310000      -0.95620000       1.54150000
H       -0.24630000      -0.51700000       2.17210000
H       -2.05850000      -0.50410000       0.71500000
H       -1.80210000      -0.93150000      -1.02390000
H        0.98440000      -2.89490000      -1.23120000
H        1.43230000      -0.24060000      -1.81640000
