21
Properties=species:S:1:pos:R:3 gdb_122091=T pbc="F F F"
C        0.65650000       0.80350000      -1.21560000
C        0.06840000       0.14900000       0.02250000
O       -1.04930000      -0.62510000      -0.36630000
C       -1.67530000      -1.27700000       0.70810000
C       -2.91420000      -2.00150000       0.16860000
O       -3.39300000      -2.79830000       1.23760000
C       -4.42580000      -3.69100000       0.87330000
C       -3.92660000      -1.06330000      -0.33190000
C       -4.77280000      -0.30460000      -0.72280000
H        1.52350000       1.41460000      -0.94780000
H        0.97480000       0.04500000      -1.93640000
H       -0.08630000       1.44460000      -1.69850000
H        0.81910000      -0.49030000       0.51750000
H       -0.23840000       0.91220000       0.75720000
H       -1.01500000      -2.02870000       1.16830000
H       -1.97970000      -0.56670000       1.49220000
H       -2.58880000      -2.64330000      -0.66740000
H       -4.68150000      -4.26070000       1.76940000
H       -5.31740000      -3.15880000       0.51660000
H       -4.09590000      -4.38830000       0.08770000
H       -5.51310000       0.37040000      -1.07550000
