16
Properties=species:S:1:pos:R:3 gdb_35991=T pbc="F F F"
N       -0.21980000      -0.86760000      -0.96380000
C       -0.06580000       0.02030000      -0.24220000
C        0.12010000       1.14520000       0.68470000
C        1.34820000       1.89530000       0.43680000
C        2.35430000       2.52220000       0.23280000
C        3.57570000       3.26880000      -0.02120000
C        4.50460000       2.75250000      -1.15580000
C        4.26770000       4.13880000      -1.78430000
O        3.35660000       4.51590000      -0.72690000
H       -0.75130000       1.80740000       0.60090000
H        0.10730000       0.75170000       1.70930000
H        4.09920000       3.45050000       0.92710000
H        5.52600000       2.52720000      -0.84900000
H        4.09510000       1.91310000      -1.71700000
H        5.14420000       4.79680000      -1.81690000
H        3.77830000       4.14680000      -2.76440000
