19
Properties=species:S:1:pos:R:3 gdb_100419=T pbc="F F F"
C       -0.01010000       1.43480000      -0.05500000
N       -0.01950000      -0.01330000      -0.03890000
C       -1.16090000      -0.73600000       0.12860000
C       -0.98370000      -2.23670000       0.18100000
N       -2.28890000      -0.12770000       0.21590000
H       -3.36660000       1.35190000       0.29160000
C       -3.52190000      -0.87330000       0.36050000
C       -4.70860000       0.09850000       0.46220000
O       -4.34650000       1.38390000       0.39360000
O       -5.84610000      -0.26880000       0.59060000
H        1.01270000       1.77860000      -0.21980000
H       -0.64540000       1.81440000      -0.86130000
H       -0.38090000       1.85330000       0.88830000
H        0.85810000      -0.49760000       0.00890000
H       -1.37040000      -2.63110000       1.12570000
H       -1.55230000      -2.71200000      -0.62410000
H        0.06230000      -2.53650000       0.08360000
H       -3.72970000      -1.54030000      -0.48870000
H       -3.54930000      -1.50340000       1.26130000
