16
Properties=species:S:1:pos:R:3 gdb_66444=T pbc="F F F"
C        0.08100000       1.52130000       0.03780000
C       -0.02840000       0.04010000      -0.09260000
C        0.82810000      -0.98470000      -0.76450000
N        0.77480000      -0.92720000       0.74220000
C       -0.39480000      -1.90420000       0.73040000
C       -0.35350000      -2.00250000      -0.78830000
O       -0.77740000      -2.94820000      -1.67820000
C       -1.23670000      -0.96140000      -0.10100000
O       -2.59350000      -0.81310000      -0.11770000
H        1.13240000       1.80990000       0.13430000
H       -0.33620000       2.02900000      -0.83860000
H       -0.45280000       1.87740000       0.92530000
H        1.75930000      -0.89390000      -1.31540000
H       -0.63740000      -2.59910000       1.52470000
H       -0.26070000      -3.75270000      -1.55190000
H       -2.89510000      -0.80950000      -1.03410000
