12
Properties=species:S:1:pos:R:3 gdb_49879=T pbc="F F F"
N        0.05880000       1.10680000       0.14550000
H        0.20130000       0.13270000      -0.06680000
H        0.79320000       1.72980000      -0.15460000
C       -1.20320000       1.58880000       0.06540000
O       -1.32630000       2.93830000       0.06620000
C       -2.69820000       3.23480000       0.04420000
O       -3.13180000       4.33610000       0.03650000
O       -3.36990000       2.07310000       0.03280000
C       -2.44030000       1.02080000       0.03920000
C       -2.85670000      -0.35070000       0.01190000
O       -3.99970000      -0.75380000      -0.01400000
H       -1.98930000      -1.05370000       0.01510000
