20
Properties=species:S:1:pos:R:3 gdb_93754=T pbc="F F F"
C       -0.26260000       1.53050000      -0.00980000
C        0.06070000       0.03310000      -0.00540000
C        0.99630000      -0.39490000      -1.16980000
N        1.87450000      -1.40280000      -0.55850000
C        1.84520000      -1.27710000       0.80790000
C        2.84790000      -2.04020000       1.61310000
C        0.82160000      -0.47140000       1.21680000
C        0.41460000      -0.24160000       2.57630000
O       -0.55820000       0.41250000       2.92160000
H        0.65420000       2.12600000       0.06490000
H       -0.77740000       1.81460000      -0.93450000
H       -0.89990000       1.77700000       0.84030000
H       -0.88680000      -0.51860000      -0.08000000
H        0.45880000      -0.81210000      -2.02560000
H        1.58410000       0.46510000      -1.52300000
H        2.74190000      -1.64570000      -1.01330000
H        2.77190000      -3.11170000       1.39740000
H        3.86720000      -1.72810000       1.35460000
H        2.70860000      -1.89150000       2.68310000
H        1.06200000      -0.71440000       3.34970000
