18
Properties=species:S:1:pos:R:3 gdb_89165=T pbc="F F F"
C        0.25690000       1.40170000      -0.11190000
C       -0.02730000      -0.06200000       0.02460000
C       -1.39900000      -0.74020000       0.15130000
C       -0.73110000      -1.84120000       1.06790000
O       -0.79280000      -3.18000000       0.67580000
C        0.61530000      -1.11500000       0.90200000
N        0.86340000      -1.09070000      -0.53310000
C        2.11360000      -0.86200000      -1.08040000
O        3.15070000      -1.31780000      -0.66130000
H        1.31960000       1.61790000       0.03590000
H       -0.03090000       1.77150000      -1.10260000
H       -0.31460000       1.96720000       0.63050000
H       -2.12990000      -0.13400000       0.69190000
H       -1.83740000      -1.10160000      -0.78170000
H       -1.10510000      -1.79020000       2.09270000
H       -0.31790000      -3.24460000      -0.16260000
H        1.45580000      -1.04820000       1.58240000
H        2.04750000      -0.27210000      -2.01450000
