18
Properties=species:S:1:pos:R:3 gdb_40425=T pbc="F F F"
C        0.56870000       1.40520000       0.10840000
O        1.07770000       0.15740000      -0.38050000
C       -0.28840000       0.21200000       0.03580000
C       -0.63820000      -0.58340000       1.25000000
N        0.43800000      -0.95680000       2.20720000
C       -0.25910000      -2.01410000       1.43930000
C       -1.38050000      -2.70620000       2.20660000
C       -2.36430000      -1.58060000       2.46120000
C       -1.97010000      -0.42800000       1.91640000
H        0.96220000       1.71870000       1.07340000
H        0.47140000       2.18910000      -0.64030000
H       -1.00860000       0.15420000      -0.78170000
H        1.32420000      -0.78770000       1.72730000
H        0.30520000      -2.55190000       0.68520000
H       -1.83210000      -3.51700000       1.62010000
H       -1.01770000      -3.15050000       3.14130000
H       -3.26140000      -1.71680000       3.05480000
H       -2.49930000       0.51610000       1.97080000
