17
Properties=species:S:1:pos:R:3 gdb_37854=T pbc="F F F"
N       -0.02610000       1.49000000       0.02620000
C        1.45380000       1.39480000      -0.01640000
C        1.30150000       0.07710000      -0.83240000
N        2.29920000      -0.85160000      -0.35130000
C        2.05870000      -0.70380000       1.06140000
C        1.98360000       0.81790000       1.36660000
O        0.83530000       0.60590000       2.22600000
C        0.52540000      -0.53680000       1.38690000
C       -0.03300000       0.00620000       0.01210000
H       -0.35020000       1.85640000       0.92210000
H        2.00120000       2.25680000      -0.39980000
H        1.21300000       0.15460000      -1.91340000
H        2.14530000      -1.80040000      -0.68000000
H        2.65760000      -1.33420000       1.71630000
H        2.78790000       1.37220000       1.84970000
H       -0.07250000      -1.29220000       1.89780000
H       -0.93720000      -0.48340000      -0.35370000
