18
Properties=species:S:1:pos:R:3 gdb_106857=T pbc="F F F"
C       -0.67410000       0.61710000       0.16940000
O        0.70290000       0.49350000      -0.13820000
C        1.03760000      -0.34640000      -1.16920000
C        0.16970000      -0.82930000      -2.28920000
C        0.90160000      -1.87080000      -1.44940000
N        2.30120000      -1.92310000      -1.95380000
C        2.50800000      -0.49130000      -1.53200000
C        0.27840000      -2.94450000      -0.76910000
C       -0.21880000      -3.86400000      -0.16910000
H       -1.23810000       1.06290000      -0.66040000
H       -1.12020000      -0.35280000       0.42540000
H       -0.73640000       1.27700000       1.03670000
H       -0.89790000      -0.79570000      -2.10260000
H        0.46150000      -0.70290000      -3.33040000
H        2.85160000      -2.53620000      -1.35920000
H        2.89180000       0.15560000      -2.32770000
H        3.13770000      -0.39410000      -0.64330000
H       -0.66630000      -4.67630000       0.34760000
