17
Properties=species:S:1:pos:R:3 gdb_6943=T pbc="F F F"
C       -0.03530000       1.54680000       0.01180000
C       -0.01180000       0.00730000      -0.04560000
C       -1.44710000      -0.55280000      -0.05520000
C        0.84330000      -0.53180000      -1.17300000
C        1.85910000      -1.23110000      -0.66030000
N        1.80880000      -1.24200000       0.74350000
C        0.72330000      -0.52700000       1.20930000
O        0.41890000      -0.35900000       2.36880000
H        0.97700000       1.96080000      -0.00550000
H       -0.58460000       1.95300000      -0.84360000
H       -0.52590000       1.87450000       0.93310000
H       -2.00520000      -0.15980000      -0.91090000
H       -1.44730000      -1.64470000      -0.12030000
H       -1.96290000      -0.26240000       0.86490000
H        0.64970000      -0.36810000      -2.22280000
H        2.66010000      -1.75380000      -1.16360000
H        2.46320000      -1.70140000       1.35450000
