18
Properties=species:S:1:pos:R:3 gdb_67895=T pbc="F F F"
C       -0.02420000       1.54160000      -0.01460000
C        0.00300000       0.03090000       0.01540000
C       -1.34740000      -0.75080000      -0.02380000
C       -0.90230000      -1.52480000       1.23600000
O       -1.42930000      -2.33660000       1.93710000
C        0.44200000      -0.76210000       1.30800000
C        1.60970000      -1.36790000       0.49630000
N        1.01780000      -2.10150000      -0.65000000
C        1.19580000      -0.63390000      -0.72890000
H        0.96400000       1.96050000       0.20730000
H       -0.32680000       1.91180000      -1.00160000
H       -0.72980000       1.94050000       0.72170000
H       -2.22000000      -0.11860000       0.17440000
H       -1.54120000      -1.37530000      -0.89740000
H        0.70800000      -0.26350000       2.24100000
H        2.59120000      -1.62920000       0.87090000
H        1.78520000      -2.53290000      -1.16310000
H        1.79050000      -0.18790000      -1.51820000
