17
Properties=species:S:1:pos:R:3 gdb_13600=T pbc="F F F"
C       -0.66420000       1.20010000       0.28390000
N        0.02330000      -0.08310000       0.15180000
C        1.32750000      -0.10810000      -0.45490000
C        1.18040000      -0.40290000       1.01350000
C        1.74380000       0.56810000       1.99050000
O        1.89400000       1.75720000       1.76990000
C        2.14000000       0.01670000       3.35310000
O        2.68280000       1.00900000       4.16670000
H       -0.00010000       2.04970000       0.47640000
H       -1.21200000       1.37420000      -0.64710000
H       -1.39290000       1.12810000       1.09700000
H        1.53140000      -0.93280000      -1.13320000
H        1.80420000       0.83990000      -0.69860000
H        1.19230000      -1.43810000       1.34740000
H        1.24230000      -0.43820000       3.80770000
H        2.85290000      -0.81080000       3.19600000
H        2.62880000       1.82280000       3.63910000
