18
Properties=species:S:1:pos:R:3 gdb_33145=T pbc="F F F"
N       -0.89400000       0.31480000       0.81630000
H       -1.34190000      -0.37980000       2.41330000
H       -0.06500000      -0.19060000       0.51540000
H       -1.58190000       0.21110000       0.07690000
C       -0.56560000       1.73850000       1.02900000
C        0.25070000       1.92100000       2.31830000
C       -0.52110000       1.74280000       3.59500000
C       -0.59600000       2.63610000       4.62030000
O       -1.32910000       2.15610000       5.64810000
C       -1.76020000       0.90820000       5.27960000
C       -1.29670000       0.60100000       4.03550000
O       -1.51300000      -0.55240000       3.37110000
H       -0.00810000       2.16340000       0.18130000
H       -1.50750000       2.28990000       1.11090000
H        1.10070000       1.22260000       2.28260000
H        0.68860000       2.92540000       2.30940000
H       -0.17780000       3.62130000       4.75580000
H       -2.36810000       0.37810000       5.99110000
