14
Properties=species:S:1:pos:R:3 gdb_257=T pbc="F F F"
C       -0.00080000       1.67800000       0.06810000
C       -0.05480000       0.15790000      -0.02970000
C        0.61400000      -0.54900000       1.14350000
O       -1.44430000      -0.23910000      -0.05720000
C       -1.91020000      -0.88750000      -1.13670000
O       -3.04410000      -1.24990000      -1.23940000
H        1.03820000       2.01990000       0.09520000
H       -0.49530000       2.14110000      -0.79010000
H       -0.50180000       2.01920000       0.97880000
H        0.41400000      -0.16640000      -0.96930000
H        0.13000000      -0.26820000       2.08350000
H        0.54660000      -1.63470000       1.03330000
H        1.67080000      -0.27160000       1.20130000
H       -1.13330000      -1.04620000      -1.91170000
