16
Properties=species:S:1:pos:R:3 gdb_24370=T pbc="F F F"
C        0.02760000       1.46400000       0.10660000
O        1.34050000       2.05680000       0.08050000
C        2.16010000       1.46250000      -0.82550000
C        2.00200000       0.13990000      -1.21000000
N        3.05960000      -0.15870000      -2.04380000
C        3.85540000       0.94600000      -2.18440000
C        3.33140000       1.97670000      -1.42280000
C        0.99570000      -0.68620000      -0.60380000
C        0.05040000      -0.04800000       0.10830000
H       -0.45090000       1.86150000       1.00460000
H       -0.53410000       1.83700000      -0.77000000
H        3.18800000      -1.02830000      -2.53020000
H        4.71670000       0.92890000      -2.83240000
H        3.73850000       2.96950000      -1.31910000
H        1.04430000      -1.76910000      -0.66290000
H       -0.71570000      -0.57820000       0.66150000
