19
Properties=species:S:1:pos:R:3 gdb_89075=T pbc="F F F"
O       -0.42350000       1.43560000       0.70610000
C       -0.15500000       0.10260000       0.41410000
C       -0.92940000      -1.00000000       1.10910000
C       -1.17750000      -0.67920000      -0.35450000
O       -2.30500000       0.07330000      -0.68860000
C       -3.52120000      -0.65820000      -0.69280000
C       -4.63530000       0.28540000      -1.04650000
C       -6.00710000       0.04740000      -0.58420000
O       -5.19350000       1.04920000       0.02370000
H       -1.30130000       1.62180000       0.34610000
H        0.89600000      -0.06400000       0.19820000
H       -0.42860000      -1.92910000       1.36000000
H       -1.68520000      -0.67350000       1.81590000
H       -0.87010000      -1.39560000      -1.11630000
H       -3.46790000      -1.47030000      -1.43590000
H       -3.70970000      -1.10700000       0.29230000
H       -4.48410000       0.84830000      -1.96790000
H       -6.84410000       0.41250000      -1.17710000
H       -6.22400000      -0.82010000       0.03830000
