20
Properties=species:S:1:pos:R:3 gdb_123107=T pbc="F F F"
C       -0.01630000       1.51040000      -0.06990000
C        0.08360000      -0.00430000      -0.00890000
O        0.68350000      -0.46460000      -1.20260000
C        0.82000000      -1.86410000      -1.25210000
C        1.49540000      -2.25600000      -2.54690000
O        2.85950000      -1.82130000      -2.48630000
C        3.61950000      -2.17370000      -3.55140000
N        4.90030000      -1.72490000      -3.37520000
O        3.22740000      -2.81910000      -4.49530000
H        0.97700000       1.95590000      -0.17380000
H       -0.62180000       1.82050000      -0.92620000
H       -0.47860000       1.89920000       0.84230000
H        0.68250000      -0.31840000       0.86300000
H       -0.91720000      -0.45390000       0.11180000
H        1.41110000      -2.23330000      -0.39760000
H       -0.16650000      -2.35770000      -1.20930000
H        1.45940000      -3.34080000      -2.68570000
H        0.99560000      -1.78520000      -3.39890000
H        5.06300000      -1.00040000      -2.69630000
H        5.48410000      -1.73810000      -4.19380000
