19
Properties=species:S:1:pos:R:3 gdb_10752=T pbc="F F F"
C        0.63610000       1.48180000       0.24960000
C       -0.02910000       0.10410000       0.04960000
C        0.57730000      -0.92150000       1.03000000
C       -1.50060000       0.26690000       0.44040000
O       -2.46550000       0.06560000      -0.25210000
N        0.28360000      -0.34310000      -1.30420000
C       -0.50270000      -1.34110000      -2.01810000
C       -0.46770000       0.07940000      -2.47930000
H        1.71070000       1.38810000       0.07500000
H        0.23580000       2.21310000      -0.45900000
H        0.47720000       1.86060000       1.26390000
H        0.41640000      -0.62520000       2.07100000
H        0.13490000      -1.91100000       0.88000000
H        1.65240000      -0.99590000       0.84900000
H       -1.62610000       0.61280000       1.49580000
H        0.08090000      -2.10080000      -2.53270000
H       -1.43890000      -1.68320000      -1.59000000
H       -1.38140000       0.64900000      -2.34720000
H        0.14170000       0.36520000      -3.33350000
