20
Properties=species:S:1:pos:R:3 gdb_119784=T pbc="F F F"
C       -0.10910000       1.44490000      -0.01090000
C       -0.03250000      -0.06890000      -0.01260000
O       -1.38260000      -0.57690000       0.01700000
C       -1.49190000      -1.89950000       0.01850000
N       -0.55140000      -2.77070000      -0.00300000
C       -1.39190000      -4.02170000       0.01480000
C       -2.50350000      -3.70110000      -1.02920000
C       -2.83780000      -2.60630000       0.04760000
C       -2.45640000      -3.70250000       1.10720000
H        0.90010000       1.86680000      -0.03270000
H       -0.65420000       1.80950000      -0.88610000
H       -0.61580000       1.80940000       0.88710000
H        0.46780000      -0.45820000      -0.90560000
H        0.50640000      -0.45820000       0.85760000
H       -0.80300000      -4.93670000       0.00130000
H       -2.17860000      -3.36130000      -2.01530000
H       -3.27790000      -4.46850000      -1.11100000
H       -3.75670000      -2.02340000       0.06820000
H       -3.22660000      -4.46990000       1.22200000
H       -2.08850000      -3.36380000       2.07840000
