15
Properties=species:S:1:pos:R:3 gdb_66283=T pbc="F F F"
O        0.31930000       1.40590000       0.36820000
C        0.01470000       0.08790000       0.02500000
C       -1.47620000      -0.14950000      -0.27900000
C       -1.40980000      -1.32020000      -1.26630000
O       -0.16880000      -1.13820000      -1.99480000
C        0.64790000      -0.30720000      -1.31810000
N        1.75410000       0.17180000      -1.67890000
C        0.48080000      -0.85900000       1.06990000
N        0.82150000      -1.60470000       1.88430000
H        1.18860000       1.58440000      -0.02700000
H       -2.07620000      -0.36670000       0.60460000
H       -1.85570000       0.75530000      -0.76090000
H       -1.37340000      -2.28930000      -0.75860000
H       -2.22000000      -1.32650000      -1.99640000
H        2.04080000      -0.13590000      -2.60720000
