18
Properties=species:S:1:pos:R:3 gdb_79131=T pbc="F F F"
C       -0.26340000       1.12430000      -0.57850000
C       -0.03450000       0.02320000       0.40370000
C       -1.00350000      -0.70790000       1.01580000
C       -0.34780000      -1.97610000       1.61330000
C       -0.60190000      -2.62280000       0.30540000
C       -1.74560000      -1.57190000      -0.04620000
O       -3.01340000      -2.10240000       0.20100000
N        0.78570000      -2.17450000       0.72980000
C        1.24900000      -0.80360000       0.39980000
H        0.15940000       0.88870000      -1.56410000
H       -1.32740000       1.35080000      -0.68570000
H        0.23510000       2.04430000      -0.24440000
H       -0.37900000      -2.36100000       2.62600000
H       -0.68290000      -3.68020000       0.07210000
H       -1.79110000      -1.16240000      -1.05790000
H       -3.04000000      -2.40090000       1.11780000
H        1.71230000      -0.75500000      -0.59310000
H        2.01710000      -0.53570000       1.13640000
