18
Properties=species:S:1:pos:R:3 gdb_62269=T pbc="F F F"
C       -0.09730000       1.49740000       0.02890000
C        0.01750000      -0.03420000       0.01570000
C       -1.29220000      -0.64940000       0.18980000
C       -2.38210000      -1.13830000       0.33300000
C        0.90490000      -0.52080000      -1.14830000
C        2.13410000      -0.42820000      -0.33090000
C        1.19290000      -0.54370000       0.92880000
C        1.22380000      -2.05180000       0.64880000
N        1.64930000      -1.76750000      -0.76560000
H        0.89140000       1.95680000      -0.06400000
H       -0.71970000       1.84800000      -0.79980000
H       -0.55690000       1.83920000       0.96080000
H       -3.34130000      -1.57760000       0.45500000
H        0.75460000      -0.35080000      -2.20670000
H        3.12670000      -0.04140000      -0.51590000
H        1.32690000      -0.11050000       1.91860000
H        2.04650000      -2.56610000       1.15140000
H        0.29480000      -2.61910000       0.75930000
