16
Properties=species:S:1:pos:R:3 gdb_4555=T pbc="F F F"
C        0.02540000       1.45920000       0.13320000
N       -0.01810000       0.01720000       0.07260000
C       -1.14970000      -0.80050000       0.10750000
C       -0.73940000      -2.07180000       0.02590000
C       -1.42940000      -3.38150000       0.01160000
O        0.64960000      -2.08280000      -0.06150000
C        1.10260000      -0.77940000      -0.03260000
N        2.30790000      -0.38230000      -0.09060000
H        1.07440000       1.75250000       0.08060000
H       -0.51600000       1.90870000      -0.70720000
H       -0.40520000       1.83060000       1.07020000
H       -2.14350000      -0.39390000       0.18750000
H       -1.21930000      -3.93470000      -0.91130000
H       -1.10900000      -4.01200000       0.84930000
H       -2.50950000      -3.23420000       0.08570000
H        2.94440000      -1.17000000      -0.16500000
