19
Properties=species:S:1:pos:R:3 gdb_59315=T pbc="F F F"
C        0.05130000       1.46600000      -0.19860000
C        0.03310000      -0.04340000       0.04740000
O        0.75120000      -0.38370000       1.22990000
C       -1.38580000      -0.60460000       0.10440000
C       -2.30300000      -0.48790000      -1.15650000
C       -2.71240000      -1.94790000      -0.91640000
O       -3.58760000      -2.65580000      -1.32310000
C       -1.55550000      -2.15550000       0.09660000
O       -0.45440000      -2.77560000      -0.54580000
H        1.08200000       1.83080000      -0.20060000
H       -0.41010000       1.72670000      -1.15630000
H       -0.49810000       1.99660000       0.59010000
H        0.57290000      -0.55300000      -0.75660000
H        0.37750000       0.12740000       1.95670000
H       -1.89990000      -0.19310000       0.98170000
H       -3.10560000       0.25270000      -1.15870000
H       -1.73190000      -0.39040000      -2.08700000
H       -1.80160000      -2.63670000       1.05160000
H       -0.71980000      -3.67190000      -0.77960000
