21
Properties=species:S:1:pos:R:3 gdb_93782=T pbc="F F F"
C       -0.03410000       1.54210000       0.05550000
C        0.00340000       0.02260000       0.01630000
C        0.68000000      -0.52530000      -1.25870000
C        0.89970000      -2.02920000      -1.17270000
O        0.64420000      -2.77850000      -2.08660000
C        1.45660000      -2.51960000       0.16200000
C        2.96910000      -2.24550000       0.26170000
C        0.68590000      -1.82870000       1.30580000
O        0.70080000      -0.41990000       1.17380000
H        0.98230000       1.94770000       0.03860000
H       -0.57980000       1.93500000      -0.80730000
H       -0.52710000       1.88670000       0.96820000
H       -1.02840000      -0.36910000       0.05500000
H        0.09250000      -0.30560000      -2.15380000
H        1.65790000      -0.03680000      -1.36430000
H        1.27840000      -3.59910000       0.20170000
H        3.17100000      -1.17280000       0.31980000
H        3.37420000      -2.71010000       1.16650000
H        3.50370000      -2.65770000      -0.59880000
H       -0.35340000      -2.19590000       1.33310000
H        1.14930000      -2.05550000       2.27110000
