20
Properties=species:S:1:pos:R:3 gdb_117989=T pbc="F F F"
C        0.11540000       1.58860000       0.02810000
C       -0.00900000       0.05240000       0.03130000
C        0.71380000      -0.50900000       1.17780000
N        1.29370000      -0.95080000       2.07430000
C       -1.47960000      -0.46270000       0.03350000
O       -2.19200000       0.00020000       1.16950000
C       -2.20740000      -0.14920000      -1.27690000
C       -3.57630000      -0.81690000      -1.35580000
O       -4.17090000      -0.42100000      -2.58150000
H        1.16580000       1.88740000       0.03510000
H       -0.35250000       2.01350000      -0.86330000
H       -0.35520000       2.01730000       0.91720000
H        0.47260000      -0.34300000      -0.87210000
H       -1.43700000      -1.55060000       0.16200000
H       -2.40340000       0.93080000       1.03700000
H       -2.34410000       0.93400000      -1.38940000
H       -1.60310000      -0.47930000      -2.12990000
H       -3.45570000      -1.91120000      -1.30230000
H       -4.18340000      -0.51340000      -0.49120000
H       -5.04700000      -0.81400000      -2.63150000
