22
Properties=species:S:1:pos:R:3 gdb_68022=T pbc="F F F"
C       -0.05400000       1.53410000       0.06340000
C        0.04020000       0.02610000       0.07640000
C        0.86370000      -0.79740000      -0.98600000
C        0.71040000      -1.91700000       0.09420000
C        1.53460000      -3.17810000       0.12910000
C        0.86710000      -0.76310000       1.12830000
N       -0.76720000      -2.18400000      -0.06320000
C       -1.62890000      -1.76010000       1.05610000
C       -1.26620000      -0.78600000      -0.00520000
H        0.93910000       1.99460000       0.04680000
H       -0.60060000       1.88830000      -0.81840000
H       -0.58120000       1.90510000       0.94970000
H        0.39560000      -0.98920000      -1.95530000
H        1.89010000      -0.44170000      -1.10880000
H        2.60440000      -2.94850000       0.15220000
H        1.29660000      -3.77350000       1.01750000
H        1.32820000      -3.79540000      -0.75060000
H        1.90060000      -0.41130000       1.16260000
H        0.49930000      -0.87160000       2.15000000
H       -2.61840000      -2.20850000       1.01690000
H       -1.23080000      -1.67190000       2.06030000
H       -2.00220000      -0.48590000      -0.74890000
