13
Properties=species:S:1:pos:R:3 gdb_129047=T pbc="F F F"
N       -0.11710000       1.29600000      -0.21110000
C        0.01550000       0.03310000      -0.03640000
C        1.22820000      -0.73740000       0.15470000
C        1.14480000      -2.06390000       0.32150000
O       -0.00870000      -2.76140000       0.32630000
N       -1.22230000      -2.10960000       0.15060000
C       -1.20130000      -0.82150000      -0.01590000
C       -2.47970000      -0.21700000      -0.19020000
C       -3.55740000       0.29390000      -0.33740000
H        0.79810000       1.75250000      -0.20230000
H        2.19500000      -0.24850000       0.16310000
H        1.98620000      -2.73070000       0.47130000
H       -4.50640000       0.75330000      -0.46810000
