12
Properties=species:S:1:pos:R:3 gdb_21546=T pbc="F F F"
N        0.06500000       1.43980000       0.15160000
C        0.00900000       0.06790000       0.03780000
C       -1.07730000      -0.78310000       0.00880000
O       -0.63270000      -2.07130000      -0.03630000
N        0.73260000      -2.07800000      -0.04060000
C        1.11860000      -0.82650000       0.00550000
C       -2.50260000      -0.51720000       0.01450000
O       -3.38040000      -1.34970000      -0.01570000
H        0.90380000       1.87020000      -0.20730000
H       -0.76600000       1.94620000      -0.11350000
H        2.17360000      -0.59130000       0.01550000
H       -2.73820000       0.57180000       0.05010000
