20
Properties=species:S:1:pos:R:3 gdb_81096=T pbc="F F F"
C       -0.09690000       1.59150000       0.26550000
C        0.05580000       0.08330000       0.20380000
N        1.15720000      -0.51700000      -0.70730000
C        2.13280000      -0.16850000       0.43760000
C        0.92930000      -0.73470000       1.21180000
C        0.75420000      -0.90750000       2.68490000
O        1.58220000      -0.59710000       3.50640000
C        0.93350000      -1.82780000       0.08910000
C       -0.23510000      -2.72690000      -0.26820000
H       -0.36130000       1.96790000      -0.72860000
H       -0.91530000       1.84960000       0.94580000
H        0.79410000       2.12410000       0.60170000
H       -0.91820000      -0.35020000      -0.02670000
H        3.04760000      -0.76500000       0.42220000
H        2.36500000       0.89070000       0.52270000
H       -0.22000000      -1.35640000       2.99290000
H        1.85130000      -2.42510000       0.08360000
H       -0.12240000      -3.06580000      -1.30350000
H       -0.22250000      -3.61400000       0.37360000
H       -1.21870000      -2.26310000      -0.17390000
