17
Properties=species:S:1:pos:R:3 gdb_65289=T pbc="F F F"
C       -0.07320000       1.53870000      -0.00480000
C       -0.02640000       0.02590000       0.05130000
N        1.29950000      -0.59930000      -0.20710000
C        0.72510000      -0.70740000       1.11520000
C        1.34280000      -0.19240000       2.41070000
O        0.85380000      -1.35610000       3.11380000
C        0.31890000      -1.94570000       1.90910000
C       -1.18740000      -0.65960000      -0.47270000
N       -2.11250000      -1.21630000      -0.88920000
H        0.85250000       1.94750000       0.40540000
H       -0.17210000       1.88270000      -1.03810000
H       -0.91990000       1.92430000       0.57050000
H        1.20010000      -1.47010000      -0.72600000
H        2.43830000      -0.13880000       2.39730000
H        0.93240000       0.73960000       2.81680000
H       -0.75550000      -2.15030000       1.97950000
H        0.84790000      -2.86630000       1.62810000
