20
Properties=species:S:1:pos:R:3 gdb_26346=T pbc="F F F"
C        0.11600000       1.30140000      -0.43110000
C        0.02460000      -0.13850000       0.11680000
C        0.67620000      -0.23540000       1.50220000
C       -1.39760000      -0.63760000       0.10880000
C       -2.24680000      -0.84190000       1.17890000
N       -3.45640000      -1.26150000       0.69990000
C       -3.41660000      -1.34970000      -0.67550000
C       -2.15490000      -0.96510000      -1.05900000
O       -1.73350000      -0.89700000      -2.36050000
H        1.15820000       1.63280000      -0.49880000
H       -0.33380000       1.37890000      -1.42570000
H       -0.42180000       1.99260000       0.22630000
H        0.61450000      -0.78120000      -0.55860000
H        0.64290000      -1.25860000       1.88790000
H        1.72280000       0.08240000       1.46140000
H        0.16360000       0.41440000       2.22070000
H       -2.08030000      -0.72500000       2.23710000
H       -4.25220000      -1.49320000       1.26550000
H       -4.26520000      -1.66720000      -1.25670000
H       -0.77340000      -0.84230000      -2.36450000
