17
Properties=species:S:1:pos:R:3 gdb_98813=T pbc="F F F"
C        0.03000000       1.34510000       0.01000000
O       -0.05730000      -0.08180000       0.00290000
C       -1.29280000      -0.59010000       0.01010000
N       -2.34330000       0.12630000       0.02220000
N       -1.24200000      -1.98210000       0.00230000
C       -2.35170000      -2.94410000       0.00500000
C       -1.29410000      -4.08110000      -0.01000000
C       -0.23250000      -2.96260000      -0.01150000
O        0.95970000      -2.90400000      -0.02050000
H        1.09710000       1.56780000       0.00290000
H       -0.45920000       1.76670000      -0.87190000
H       -0.44530000       1.75710000       0.90390000
H       -3.18760000      -0.43950000       0.02600000
H       -2.97150000      -2.89140000       0.90490000
H       -2.98510000      -2.88050000      -0.88480000
H       -1.26990000      -4.71500000       0.87770000
H       -1.28370000      -4.70430000      -0.90550000
