21
Properties=species:S:1:pos:R:3 gdb_103648=T pbc="F F F"
C       -0.01500000       1.55750000       0.01330000
C        0.01430000       0.02390000       0.01620000
C        0.77720000      -0.59190000      -1.18790000
C        1.60060000      -1.78060000      -0.63280000
O        0.97790000      -3.05780000      -0.90310000
C        2.98710000      -1.91750000      -1.26940000
O        3.67340000      -3.04350000      -0.76520000
C        1.62200000      -1.51210000       0.85510000
C        0.74670000      -0.56950000       1.20140000
H        1.00140000       1.96620000       0.01910000
H       -0.52720000       1.93810000      -0.87640000
H       -0.53900000       1.94740000       0.89250000
H       -1.02870000      -0.32630000       0.02670000
H        0.12250000      -0.92440000      -1.99660000
H        1.45900000       0.15950000      -1.60470000
H        0.28740000      -3.19020000      -0.24570000
H        2.86810000      -1.97180000      -2.36460000
H        3.59050000      -1.03420000      -1.03830000
H        3.03130000      -3.76370000      -0.81240000
H        2.25940000      -2.08190000       1.52080000
H        0.55460000      -0.23810000       2.21770000
