22
Properties=species:S:1:pos:R:3 gdb_63653=T pbc="F F F"
C       -0.13010000       1.53430000      -0.28020000
C        0.08240000       0.04910000      -0.04890000
C       -0.89870000      -0.83940000      -0.78920000
C        1.46480000      -0.45340000       0.21750000
N        0.45750000      -0.46020000       1.27650000
C        0.63630000       0.44260000       2.40500000
C        1.26020000      -0.31590000       3.55550000
C        2.69710000      -0.24600000       3.84530000
O        1.75100000       0.47680000       4.63640000
H        0.62030000       2.15170000       0.21780000
H       -0.08220000       1.75620000      -1.35160000
H       -1.11950000       1.84780000       0.07350000
H       -0.81000000      -0.70180000      -1.87280000
H       -0.71850000      -1.89070000      -0.55340000
H       -1.93040000      -0.60100000      -0.50530000
H        1.78600000      -1.42680000      -0.14640000
H        2.26070000       0.28900000       0.28010000
H        1.25960000       1.32500000       2.18970000
H       -0.35040000       0.80840000       2.71600000
H        0.71970000      -1.21390000       3.85520000
H        3.19130000      -1.07560000       4.34860000
H        3.34310000       0.36670000       3.21700000
