21
Properties=species:S:1:pos:R:3 gdb_92728=T pbc="F F F"
C        0.18610000       1.59280000       0.05070000
C        0.01080000       0.06940000       0.00750000
C        0.57600000      -0.52560000      -1.30120000
C        0.69640000      -2.02660000      -1.28090000
C        0.94900000      -2.72070000      -0.16710000
C        1.09950000      -4.21620000      -0.12760000
C        1.09060000      -1.98790000       1.12410000
O        2.02650000      -0.88230000       1.16910000
C        0.62960000      -0.59440000       1.22030000
H        1.24900000       1.85660000       0.05570000
H       -0.27650000       2.06760000      -0.82070000
H       -0.27120000       2.02230000       0.94820000
H       -1.06400000      -0.16150000       0.05320000
H       -0.05230000      -0.20730000      -2.14050000
H        1.56710000      -0.08740000      -1.48200000
H        0.60900000      -2.54990000      -2.23030000
H        0.95010000      -4.65900000      -1.11570000
H        2.09660000      -4.50520000       0.22880000
H        0.37760000      -4.67400000       0.56110000
H        1.10720000      -2.59680000       2.02740000
H        0.28120000      -0.22900000       2.18870000
