16
Properties=species:S:1:pos:R:3 gdb_474=T pbc="F F F"
C       -0.04220000       1.56580000       0.08640000
C        0.05250000       0.05960000      -0.03200000
C        0.70590000      -0.62570000      -1.22420000
C        1.29650000       0.14320000      -2.38680000
C        1.38390000      -0.65030000       0.11940000
O        2.55880000       0.10370000       0.23550000
H        0.89860000       2.05130000      -0.18180000
H       -0.82700000       1.96970000      -0.56230000
H       -0.28510000       1.85950000       1.11430000
H       -0.80040000      -0.46920000       0.38740000
H        0.24190000      -1.56560000      -1.51320000
H        1.89020000       0.99370000      -2.04920000
H        1.95800000      -0.50210000      -2.97470000
H        0.51160000       0.51210000      -3.05630000
H        1.40420000      -1.59390000       0.66510000
H        2.58340000       0.48100000       1.12110000
