21
Properties=species:S:1:pos:R:3 gdb_57776=T pbc="F F F"
C        0.15750000       1.56990000      -0.13730000
C       -0.11250000       0.07320000       0.07830000
O        0.18810000      -0.68340000      -1.09540000
C        0.59760000      -0.43660000       1.25480000
C        1.21920000      -0.85880000       2.19920000
C        1.96430000      -1.34460000       3.33120000
C        3.01870000      -0.39170000       3.87520000
C        1.23100000      -2.24360000       4.31850000
C        2.24870000      -2.84010000       3.39010000
H        1.22800000       1.74790000      -0.28190000
H       -0.37920000       1.91180000      -1.02630000
H       -0.17080000       2.15420000       0.72720000
H       -1.19100000      -0.06930000       0.22110000
H        1.14800000      -0.74450000      -1.15470000
H        2.56450000       0.54860000       4.20320000
H        3.53530000      -0.83720000       4.73100000
H        3.76600000      -0.15680000       3.11070000
H        1.48970000      -2.13230000       5.36620000
H        0.18400000      -2.44680000       4.12900000
H        1.89560000      -3.45000000       2.56750000
H        3.20810000      -3.13940000       3.79870000
