20
Properties=species:S:1:pos:R:3 gdb_121327=T pbc="F F F"
C       -0.19110000       0.80380000       0.46390000
O       -0.39200000       0.27270000      -0.83550000
C        0.71210000      -0.39790000      -1.39350000
C        0.76160000      -1.90770000      -1.06880000
C        1.30250000      -2.78900000      -2.20940000
C        1.78640000      -4.02860000      -1.45610000
O        2.21260000      -3.54240000      -0.17090000
C        1.65110000      -2.32530000       0.09070000
N        1.86860000      -1.66150000       1.14380000
H        0.05270000       0.02850000       1.19750000
H        0.62450000       1.54290000       0.46820000
H       -1.12240000       1.30550000       0.73970000
H        0.60230000      -0.29310000      -2.47960000
H        1.65960000       0.07700000      -1.10080000
H       -0.26540000      -2.21290000      -0.82970000
H        0.55400000      -3.01910000      -2.97030000
H        2.14640000      -2.29120000      -2.70120000
H        0.98030000      -4.75870000      -1.30980000
H        2.63630000      -4.53420000      -1.92010000
H        2.50270000      -2.16730000       1.76430000
