15
Properties=species:S:1:pos:R:3 gdb_30504=T pbc="F F F"
C        0.00250000       1.42910000       0.06800000
N       -0.02290000      -0.02170000       0.09570000
C       -1.11220000      -0.63830000       0.01110000
O       -2.38410000      -0.11110000      -0.11370000
C       -3.27820000      -1.16650000      -0.17310000
C       -2.64090000      -2.33290000      -0.09190000
N       -1.27210000      -2.03770000       0.02550000
C       -0.24930000      -2.96670000       0.13660000
O       -0.44460000      -4.15780000       0.14320000
H        0.64780000       1.76270000      -0.75230000
H       -0.98280000       1.89340000      -0.05260000
H        0.45080000       1.80080000       0.99650000
H       -4.31720000      -0.90570000      -0.27210000
H       -2.98550000      -3.35100000      -0.10230000
H        0.73190000      -2.47640000       0.21490000
