18
Properties=species:S:1:pos:R:3 gdb_50383=T pbc="F F F"
O        0.00700000      -0.03410000       0.69640000
C        0.02120000       1.16400000       0.50450000
N        1.04590000       1.83700000      -0.06800000
C        2.40270000       1.37700000      -0.37370000
C        2.79680000       2.85980000      -0.63170000
C        2.82830000       3.34240000      -2.09310000
O        1.89200000       4.40830000      -2.16680000
C        0.77730000       4.04970000      -1.36310000
C        1.36430000       3.26780000      -0.16690000
H       -0.81910000       1.83930000       0.77080000
H        2.89310000       0.90650000       0.48410000
H        2.46920000       0.70270000      -1.23360000
H        3.62740000       3.23920000      -0.03910000
H        3.79850000       3.73350000      -2.40790000
H        2.54400000       2.52440000      -2.77550000
H        0.26730000       4.97260000      -1.07610000
H        0.07350000       3.40730000      -1.91440000
H        1.28030000       3.80450000       0.78230000
