18
Properties=species:S:1:pos:R:3 gdb_126178=T pbc="F F F"
C       -0.06880000       1.55200000       0.01080000
C       -0.12740000       0.02810000      -0.10030000
C        0.81960000      -0.51360000      -1.18870000
O        2.16490000      -0.14240000      -0.94380000
C        0.68570000      -2.00510000      -1.31980000
N        1.66000000      -2.82000000      -0.94630000
N        1.12600000      -4.04170000      -1.18800000
C       -0.11770000      -3.91010000      -1.68840000
N       -0.43420000      -2.63450000      -1.78460000
H        0.95480000       1.88080000       0.20750000
H       -0.40250000       2.02850000      -0.91810000
H       -0.71050000       1.91300000       0.82010000
H        0.15290000      -0.43310000       0.85550000
H       -1.14500000      -0.30730000      -0.33090000
H        0.53190000      -0.06190000      -2.14820000
H        2.59730000      -0.89350000      -0.51990000
H        1.66330000      -4.87320000      -1.00540000
H       -0.73690000      -4.75090000      -1.96340000
