17
Properties=species:S:1:pos:R:3 gdb_55433=T pbc="F F F"
N        1.16070000      -0.74640000      -0.06480000
C        0.03350000       0.04300000       0.10720000
O        0.09000000       1.21280000       0.39450000
N       -1.17140000      -0.67960000      -0.01880000
C       -1.24070000      -2.14380000      -0.05160000
C       -2.71140000      -2.44700000       0.28570000
C       -3.45680000      -1.22130000      -0.24860000
C       -2.44030000      -0.07960000      -0.16280000
O       -2.67590000       1.09450000      -0.24000000
H        2.00650000      -0.19870000      -0.11740000
H        1.12470000      -1.53170000      -0.69580000
H       -0.98140000      -2.52790000      -1.05000000
H       -0.54320000      -2.57580000       0.66920000
H       -3.04310000      -3.39150000      -0.14920000
H       -2.82900000      -2.51650000       1.37110000
H       -3.73830000      -1.33900000      -1.30200000
H       -4.36010000      -0.95640000       0.30240000
