20
Properties=species:S:1:pos:R:3 gdb_87731=T pbc="F F F"
C       -0.13840000       1.55310000       0.15940000
C       -0.09370000       0.04510000       0.20430000
N        1.14330000      -0.59810000      -0.26330000
C        0.76320000      -0.71550000       1.16370000
C        1.68870000      -0.10540000       2.22250000
C        1.64250000      -1.07410000       3.44130000
O        1.08810000      -0.49380000       4.62240000
C        0.81810000      -2.23980000       2.94140000
C        0.31700000      -2.01610000       1.72590000
H        0.83600000       1.98030000       0.40820000
H       -0.40910000       1.89950000      -0.84380000
H       -0.88160000       1.94490000       0.86280000
H       -1.03220000      -0.43960000      -0.06790000
H        0.93690000      -1.46520000      -0.75500000
H        2.69930000      -0.01650000       1.81680000
H        1.37590000       0.89180000       2.54390000
H        2.64770000      -1.38040000       3.74910000
H        0.15470000      -0.32940000       4.44650000
H        0.63460000      -3.11310000       3.55660000
H       -0.33620000      -2.68530000       1.17320000
