20
Properties=species:S:1:pos:R:3 gdb_109999=T pbc="F F F"
C       -0.41040000       1.39360000       0.14150000
C       -0.06020000      -0.09550000       0.08910000
C        0.62250000      -0.50050000      -1.21490000
C        0.82760000      -2.03270000      -1.44350000
O        0.48850000      -2.80350000      -0.32040000
C       -0.20700000      -1.95090000      -2.60630000
N       -0.24440000      -0.49860000      -2.41300000
C       -0.44730000       0.43770000      -3.37100000
O       -0.91420000       0.20720000      -4.46820000
H        0.48240000       2.02000000       0.03210000
H       -1.11010000       1.66500000      -0.65550000
H       -0.88120000       1.64970000       1.09510000
H        0.61490000      -0.35560000       0.91240000
H       -0.96020000      -0.70260000       0.22600000
H        1.53610000       0.09040000      -1.35700000
H        1.83800000      -2.26590000      -1.80050000
H        0.64670000      -3.73010000      -0.52500000
H        0.13280000      -2.24660000      -3.60300000
H       -1.15630000      -2.44800000      -2.37950000
H       -0.14420000       1.45060000      -3.03620000
