21
Properties=species:S:1:pos:R:3 gdb_89070=T pbc="F F F"
O       -0.26650000       1.49360000       0.52600000
C       -0.09920000       0.13340000       0.24550000
C       -0.75320000      -0.89870000       1.13110000
C       -1.30240000      -0.61070000      -0.25610000
C       -2.63730000       0.08490000      -0.41650000
C       -3.82720000      -0.87940000      -0.29770000
C       -5.15320000      -0.17610000      -0.44800000
C       -6.35110000      -0.57870000       0.29810000
O       -5.60770000       0.57940000       0.68100000
H        0.22990000       1.69500000       1.32570000
H        0.86490000      -0.12070000      -0.19600000
H       -0.23880000      -1.83460000       1.32100000
H       -1.32970000      -0.51720000       1.96850000
H       -1.09540000      -1.36720000      -1.01000000
H       -2.73190000       0.87440000       0.33440000
H       -2.67090000       0.58630000      -1.39330000
H       -3.75280000      -1.66250000      -1.06510000
H       -3.80030000      -1.38280000       0.67570000
H       -5.30510000       0.33600000      -1.40100000
H       -7.34130000      -0.38600000      -0.11320000
H       -6.29330000      -1.42030000       0.98800000
