17
Properties=species:S:1:pos:R:3 gdb_62396=T pbc="F F F"
N        0.00820000       1.52960000      -0.05250000
C       -0.00710000       0.08030000      -0.00630000
C        0.90230000      -0.54680000      -0.97490000
N        1.64650000      -0.93720000      -1.76960000
C        0.05290000      -0.63580000       1.38340000
C       -1.00670000       0.10030000       2.22080000
C       -2.15180000       0.07820000       1.16010000
C       -1.38240000      -0.66310000       0.05360000
O       -0.70830000      -1.72680000       0.78770000
H        0.94950000       1.87320000       0.12020000
H       -0.24290000       1.85050000      -0.98410000
H        0.99510000      -0.94320000       1.83490000
H       -1.24480000      -0.47090000       3.11980000
H       -0.70240000       1.11000000       2.49950000
H       -3.01800000      -0.50530000       1.47710000
H       -2.47390000       1.07580000       0.85870000
H       -1.89770000      -0.99840000      -0.84530000
