17
Properties=species:S:1:pos:R:3 gdb_96627=T pbc="F F F"
C        0.05560000       1.38890000       0.12690000
N        0.02240000      -0.05630000       0.00700000
C       -1.12620000      -0.61200000      -0.10040000
N       -2.35980000      -0.02750000      -0.14500000
C       -1.18360000      -2.12040000      -0.22370000
O       -2.25580000      -2.68950000      -0.19110000
C        0.12400000      -2.86340000      -0.38990000
C        0.01200000      -4.32340000       0.00280000
O        0.51270000      -5.22520000      -0.61530000
H        1.09180000       1.73110000       0.16770000
H       -0.43640000       1.88460000      -0.72450000
H       -0.44640000       1.73900000       1.04370000
H       -2.48200000       0.91420000       0.18440000
H       -3.14290000      -0.65890000      -0.06350000
H        0.45550000      -2.79240000      -1.43200000
H        0.89600000      -2.36350000       0.20670000
H       -0.55530000      -4.50920000       0.94000000
