12
Properties=species:S:1:pos:R:3 gdb_20523=T pbc="F F F"
C        0.88220000       0.99640000       0.25820000
C       -0.35700000       0.23010000      -0.13970000
O       -1.41630000       0.31870000       0.43070000
C       -0.20270000      -0.68360000      -1.32610000
N       -1.19340000      -1.41000000      -1.78420000
O       -0.62800000      -2.08550000      -2.85850000
C        0.64680000      -1.68940000      -2.92910000
N        0.98160000      -0.83060000      -2.02280000
H        1.69840000       0.30470000       0.49100000
H        1.23170000       1.61320000      -0.57620000
H        0.65460000       1.62030000       1.12240000
H        1.25290000      -2.11510000      -3.71510000
