19
Properties=species:S:1:pos:R:3 gdb_128100=T pbc="F F F"
C        0.18580000       1.09920000       0.61060000
N       -0.47470000       0.36860000      -0.48010000
C        0.35340000      -0.34940000      -1.34940000
C        0.63310000      -1.69510000      -1.50450000
C        0.12980000      -2.86360000      -0.72230000
N        1.47490000      -1.82960000      -2.56720000
N        1.74100000      -0.65610000      -3.06760000
N        1.05470000       0.25670000      -2.34700000
C        1.10840000       1.65990000      -2.69020000
H        0.79850000       0.45750000       1.26000000
H        0.83240000       1.87790000       0.19730000
H       -0.57910000       1.59040000       1.21740000
H       -1.19850000      -0.23640000      -0.11400000
H       -0.72200000      -3.35170000      -1.21100000
H        0.91710000      -3.61430000      -0.61560000
H       -0.19130000      -2.56200000       0.28030000
H        0.12370000       2.10470000      -2.52940000
H        1.84760000       2.19510000      -2.08480000
H        1.38900000       1.73490000      -3.74090000
