17
Properties=species:S:1:pos:R:3 gdb_34282=T pbc="F F F"
C       -0.00060000      -1.17220000       0.02210000
C        0.00710000       0.02980000      -0.00230000
C        0.00510000       1.47430000      -0.01630000
C       -0.62810000       2.15790000       1.25370000
O       -0.15880000       3.50350000       1.19660000
C        0.66860000       3.59190000      -0.00200000
C        1.37260000       2.23040000       0.00270000
C       -0.26140000       3.44640000      -1.19610000
C       -0.66720000       2.17350000      -1.19840000
H       -0.00270000      -2.23390000       0.03730000
H       -1.72250000       2.12600000       1.22680000
H       -0.27320000       1.67430000       2.17110000
H        1.26960000       4.49570000       0.07440000
H        1.95630000       2.05020000       0.90870000
H        1.96540000       2.02890000      -0.88940000
H       -0.61600000       4.25600000      -1.82010000
H       -1.41490000       1.70060000      -1.82120000
