25
Properties=species:S:1:pos:R:3 gdb_109533=T pbc="F F F"
C        1.30120000       1.27010000      -0.54550000
C        0.77870000      -0.13190000      -0.26170000
C       -0.15460000      -0.59810000      -1.36970000
C        1.68320000      -1.17470000       0.38930000
C        3.14510000      -0.94610000       0.69700000
O        3.97790000      -1.21410000      -0.42650000
C        0.53050000      -0.57410000       1.18070000
C        0.80110000       0.38700000       2.33080000
C       -0.64850000      -1.48090000       1.50550000
H        2.03790000       1.62420000       0.17650000
H        1.76920000       1.31030000      -1.53740000
H        0.47820000       1.99480000      -0.55450000
H        0.34780000      -0.52940000      -2.34220000
H       -0.47730000      -1.63340000      -1.24630000
H       -1.05320000       0.02880000      -1.42390000
H        1.50830000      -2.19200000       0.04230000
H        3.32490000       0.06660000       1.08310000
H        3.47740000      -1.64350000       1.47430000
H        3.66610000      -0.66000000      -1.14920000
H        1.65730000       1.04250000       2.17100000
H       -0.07280000       1.02550000       2.50810000
H        0.98620000      -0.17100000       3.25630000
H       -0.47250000      -2.00110000       2.45440000
H       -1.57350000      -0.90210000       1.61800000
H       -0.82230000      -2.24450000       0.74530000
