17
Properties=species:S:1:pos:R:3 gdb_108782=T pbc="F F F"
O        0.05320000       1.41460000      -0.02290000
C       -0.00480000       0.00830000       0.04500000
C       -1.43030000      -0.45900000       0.06220000
C       -2.48060000       0.36850000       0.16130000
C       -3.85360000      -0.15040000       0.07490000
O       -4.83930000       0.55910000       0.07290000
C       -3.97300000      -1.66620000      -0.09000000
O       -2.87880000      -2.37370000       0.46320000
C       -1.63840000      -1.94990000      -0.04940000
H        0.97080000       1.68580000       0.06820000
H        0.51120000      -0.46470000      -0.81050000
H        0.49330000      -0.37850000       0.95210000
H       -2.35330000       1.44060000       0.25120000
H       -4.87540000      -2.01270000       0.41740000
H       -4.08350000      -1.88460000      -1.16810000
H       -1.52250000      -2.25350000      -1.10840000
H       -0.87050000      -2.48790000       0.51890000
