20
Properties=species:S:1:pos:R:3 gdb_123244=T pbc="F F F"
O       -0.02810000       1.24360000      -0.45910000
C       -0.02570000      -0.16370000      -0.59630000
C       -1.41390000      -0.74560000      -0.38590000
O       -2.25210000      -0.17740000      -1.38090000
C       -3.61590000      -0.51340000      -1.24510000
C       -4.36150000      -0.01140000      -2.46920000
O       -4.04170000      -0.76560000      -3.63110000
C       -2.95820000      -0.37970000      -4.33910000
N       -2.54550000      -1.09770000      -5.29050000
H       -0.74490000       1.56030000      -1.02060000
H        0.34550000      -0.47370000      -1.58600000
H        0.65850000      -0.56230000       0.15950000
H       -1.39890000      -1.84340000      -0.47170000
H       -1.78450000      -0.47950000       0.61630000
H       -3.74140000      -1.60390000      -1.16600000
H       -4.04500000      -0.05470000      -0.33850000
H       -5.43800000      -0.12770000      -2.31740000
H       -4.14640000       1.05420000      -2.62500000
H       -2.53730000       0.57680000      -4.00610000
H       -1.74780000      -0.65100000      -5.73810000
