23
Properties=species:S:1:pos:R:3 gdb_122969=T pbc="F F F"
C        0.07460000       1.39140000      -0.17240000
C        0.09140000      -0.12880000       0.00530000
C        0.76220000      -0.55300000       1.30420000
O        0.73190000      -1.96470000       1.39630000
C        1.35300000      -2.47970000       2.55860000
C        1.35040000      -3.99590000       2.41700000
O        1.99990000      -4.37410000       1.20840000
C        2.09870000      -4.71140000       3.53630000
O        2.10480000      -6.10800000       3.32800000
H        1.08960000       1.80340000      -0.18740000
H       -0.41020000       1.67060000      -1.11190000
H       -0.47050000       1.88250000       0.64110000
H       -0.93060000      -0.52470000      -0.00440000
H        0.61880000      -0.60300000      -0.83070000
H        1.80490000      -0.19340000       1.33600000
H        0.24160000      -0.10760000       2.16890000
H        2.38840000      -2.10910000       2.63450000
H        0.80940000      -2.16920000       3.46560000
H        0.30610000      -4.34690000       2.40840000
H        1.62750000      -3.81420000       0.51700000
H        3.12370000      -4.30870000       3.59430000
H        1.60730000      -4.52890000       4.49800000
H        2.36200000      -6.23210000       2.40630000
