16
Properties=species:S:1:pos:R:3 gdb_99947=T pbc="F F F"
C       -0.22100000       1.75120000      -0.05030000
C        0.05100000       0.24420000      -0.02410000
O        0.82930000      -0.13300000       1.09160000
C       -1.26670000      -0.57170000      -0.01650000
O       -1.82040000      -0.39740000       1.28060000
C        0.82480000      -0.18830000      -1.27060000
O        0.70770000       0.31880000      -2.35600000
C        1.72270000      -1.35030000      -1.08600000
N        2.41220000      -2.27650000      -1.02550000
H        0.71480000       2.29590000       0.09410000
H       -0.65880000       2.04870000      -1.00580000
H       -0.90780000       2.01060000       0.75860000
H        0.19950000      -0.30590000       1.80550000
H       -1.93980000      -0.20250000      -0.80090000
H       -1.04560000      -1.63060000      -0.20850000
H       -2.42260000      -1.12420000       1.46260000
