21
Properties=species:S:1:pos:R:3 gdb_39757=T pbc="F F F"
C       -0.00410000       1.52540000       0.03030000
C        1.32340000       0.76640000       0.01400000
C        0.02510000       0.03660000      -0.00450000
C       -0.57420000      -1.03120000       0.91390000
C       -1.82190000      -1.10010000      -0.03310000
C       -2.34340000      -2.53660000      -0.06730000
C       -0.99230000      -3.30920000      -0.08380000
C       -0.01830000      -2.13130000      -0.05520000
C       -0.57210000      -0.98710000      -0.97320000
H       -0.28770000       2.02380000       0.95240000
H       -0.28560000       2.06640000      -0.86820000
H        1.91580000       0.80780000      -0.89510000
H        1.91370000       0.76520000       0.92550000
H       -0.57600000      -1.05780000       2.00630000
H       -2.53860000      -0.27770000      -0.01470000
H       -2.95540000      -2.77410000       0.80890000
H       -2.95340000      -2.73290000      -0.95500000
H       -0.87050000      -3.96620000       0.78350000
H       -0.86850000      -3.92500000      -0.98050000
H        1.05420000      -2.33190000      -0.05870000
H       -0.57140000      -0.96270000      -2.06560000
