20
Properties=species:S:1:pos:R:3 gdb_63852=T pbc="F F F"
C       -0.04550000       1.54620000       0.09350000
C       -0.00350000       0.02560000      -0.01160000
C       -1.37490000      -0.56260000      -0.33490000
C        1.12870000      -0.58600000      -0.92880000
C        1.71060000      -1.29260000       0.29440000
N        2.07680000      -0.23330000       1.25150000
C        0.66100000      -0.70700000       1.19320000
C        0.01410000      -1.24790000       2.33630000
C       -0.55690000      -1.68690000       3.30170000
H        0.93250000       1.94110000       0.37690000
H       -0.33580000       1.99090000      -0.86530000
H       -0.77870000       1.86460000       0.84320000
H       -1.73290000      -0.18670000      -1.29950000
H       -1.34060000      -1.65570000      -0.38770000
H       -2.10860000      -0.28910000       0.43060000
H        0.72710000      -1.27020000      -1.67930000
H        1.80480000       0.12820000      -1.40500000
H        2.17230000      -2.27120000       0.34600000
H        2.49950000      -0.68220000       2.06410000
H       -1.05810000      -2.07970000       4.15120000
