16
Properties=species:S:1:pos:R:3 gdb_50013=T pbc="F F F"
N       -0.02610000       1.20510000      -0.22740000
C       -0.00360000      -0.01860000       0.04090000
O        1.00360000      -0.82830000       0.53370000
C        0.13380000      -2.00660000       0.52550000
C       -0.99510000      -1.13480000      -0.01630000
C       -2.44650000      -1.08810000       0.30360000
C       -2.00680000      -1.44760000      -1.10640000
C       -2.22890000      -0.46560000      -2.20260000
O       -2.48930000      -0.78570000      -3.33600000
H        0.87050000       1.65580000      -0.04230000
H        0.52290000      -2.77570000      -0.14620000
H        0.00200000      -2.40240000       1.53580000
H       -2.87170000      -1.88140000       0.90810000
H       -2.87910000      -0.10440000       0.45700000
H       -2.08700000      -2.48680000      -1.40940000
H       -2.14130000       0.59710000      -1.89560000
