19
Properties=species:S:1:pos:R:3 gdb_70477=T pbc="F F F"
C        0.05340000       1.51020000       0.04080000
C       -0.03250000       0.01580000      -0.04040000
C       -0.88560000      -0.81720000       0.83320000
N        0.57550000      -0.93080000       1.00090000
C        1.00920000      -1.83390000      -0.12190000
C        0.51100000      -0.82540000      -1.18590000
O       -0.46290000      -1.26320000      -2.12290000
C       -0.08500000      -1.41690000      -3.40760000
N       -0.89030000      -1.89740000      -4.25120000
H        1.05020000       1.86970000      -0.23720000
H       -0.67530000       1.97410000      -0.63410000
H       -0.15900000       1.85490000       1.05650000
H       -1.36900000      -0.30990000       1.66250000
H       -1.44160000      -1.65780000       0.42500000
H        2.09200000      -1.97260000      -0.11220000
H        0.51190000      -2.80850000      -0.12740000
H        1.33590000      -0.32990000      -1.71010000
H        0.94310000      -1.07940000      -3.60320000
H       -0.45390000      -1.92590000      -5.17030000
