20
Properties=species:S:1:pos:R:3 gdb_57416=T pbc="F F F"
C       -0.12570000       1.49120000      -0.11520000
C        0.01500000      -0.03570000      -0.02570000
C        0.55170000      -0.46630000       1.33960000
O       -1.26070000      -0.65740000      -0.16610000
C        0.94670000      -0.53690000      -1.13390000
C        0.98530000      -2.04930000      -1.43920000
C        0.42710000      -1.63930000      -2.78270000
N        0.12490000      -2.23520000      -3.84200000
O        0.35620000      -0.29210000      -2.46310000
H        0.83170000       1.99210000       0.06170000
H       -0.48190000       1.78770000      -1.10670000
H       -0.84360000       1.83930000       0.63210000
H       -0.12340000      -0.11850000       2.12590000
H        0.61630000      -1.55560000       1.40720000
H        1.54390000      -0.04360000       1.52300000
H       -1.60570000      -0.40200000      -1.03000000
H        1.92640000      -0.05290000      -1.07670000
H        1.96770000      -2.52130000      -1.46660000
H        0.29220000      -2.64420000      -0.84370000
H       -0.22160000      -1.58490000      -4.54930000
