20
Properties=species:S:1:pos:R:3 gdb_13775=T pbc="F F F"
C        0.20320000       1.48450000       0.15260000
C       -0.15160000      -0.00180000      -0.00720000
C       -1.67020000      -0.20530000      -0.09960000
C        0.55560000      -0.57290000      -1.22720000
C        1.94920000      -1.09620000      -1.16990000
C        0.80370000      -2.07000000      -1.43790000
C        0.46200000      -3.06480000      -0.39920000
O        0.01550000      -4.16330000      -0.62760000
H        1.28420000       1.62830000       0.24580000
H       -0.13720000       2.06250000      -0.71470000
H       -0.27450000       1.90810000       1.04170000
H        0.21100000      -0.52680000       0.88550000
H       -2.07810000       0.30290000      -0.98130000
H       -1.92930000      -1.26570000      -0.17770000
H       -2.17510000       0.20320000       0.78160000
H        0.28380000      -0.06600000      -2.15160000
H        2.63670000      -0.90370000      -1.98540000
H        2.42100000      -1.16400000      -0.19340000
H        0.68470000      -2.44620000      -2.44820000
H        0.66270000      -2.73920000       0.64770000
