19
Properties=species:S:1:pos:R:3 gdb_57614=T pbc="F F F"
C       -0.04960000       1.66580000      -0.05210000
C        0.04600000       0.13630000      -0.03560000
O        0.76770000      -0.31920000       1.10030000
C       -1.37200000      -0.51890000      -0.03990000
C       -2.09500000      -0.22760000       1.19370000
N       -2.60680000       0.02740000       2.19880000
C        0.79610000      -0.36990000      -1.26120000
C        2.27450000      -0.43850000      -1.27660000
N        1.46630000      -1.67520000      -1.23330000
H        0.95320000       2.09510000       0.00560000
H       -0.52680000       2.02220000      -0.97060000
H       -0.63700000       2.03230000       0.79650000
H        0.32530000       0.00110000       1.89480000
H       -1.95520000      -0.16520000      -0.89660000
H       -1.26160000      -1.60330000      -0.13920000
H        0.27640000      -0.16070000      -2.19480000
H        2.81200000      -0.27160000      -2.20540000
H        2.79890000      -0.14490000      -0.37330000
H        1.46410000      -2.00770000      -0.27030000
