16
Properties=species:S:1:pos:R:3 gdb_11175=T pbc="F F F"
O        0.00510000       0.03800000      -0.24840000
C       -0.02100000       1.22590000      -0.06310000
C       -1.27660000       2.08510000       0.12030000
C       -0.76090000       3.43130000       0.64460000
C        0.65150000       3.58120000      -0.00330000
C        1.20890000       2.13780000       0.04420000
C        0.56170000       4.08160000      -1.37220000
C        0.47250000       4.47770000      -2.50400000
H       -1.73860000       2.20080000      -0.86810000
H       -2.00370000       1.58450000       0.76300000
H       -1.41150000       4.27360000       0.40500000
H       -0.64320000       3.39590000       1.73340000
H        1.27230000       4.26610000       0.58260000
H        1.67760000       1.94510000       1.01760000
H        1.94450000       1.90820000      -0.72780000
H        0.40390000       4.83520000      -3.50160000
