19
Properties=species:S:1:pos:R:3 gdb_58728=T pbc="F F F"
C        0.03750000       1.54380000       0.14750000
C       -0.04070000       0.02460000      -0.02010000
O        0.70960000      -0.65500000       0.98550000
C       -1.45420000      -0.48140000      -0.03330000
C       -2.71630000      -0.11380000      -0.88220000
C       -3.61320000      -0.49040000       0.28730000
C       -3.22330000      -1.54140000      -0.74130000
C       -1.96680000      -1.90550000       0.10560000
C       -2.36140000      -0.85520000       1.13920000
H        1.08160000       1.86830000       0.16420000
H       -0.47460000       2.05770000      -0.67240000
H       -0.44080000       1.85260000       1.08460000
H        0.45130000      -0.25310000      -0.96190000
H        0.36480000      -0.36690000       1.83850000
H       -2.87950000       0.60580000      -1.67370000
H       -4.59190000      -0.11270000       0.55140000
H       -3.84990000      -2.11790000      -1.40850000
H       -1.40150000      -2.81750000       0.23950000
H       -2.17270000      -0.84100000       2.20520000
