23
Properties=species:S:1:pos:R:3 gdb_83223=T pbc="F F F"
C       -0.65010000       1.53400000       0.09720000
C        0.00390000       0.14780000      -0.00610000
C       -1.09020000      -0.92220000      -0.18730000
C        1.02780000       0.06960000      -1.17610000
C        2.11450000      -0.93820000      -0.73690000
C        2.10720000      -0.91610000       0.78740000
C        2.18480000       0.40940000       1.47910000
O        2.67200000       1.52050000       0.77520000
C        0.82830000      -0.21470000       1.23490000
H        0.10400000       2.31640000       0.22330000
H       -1.22310000       1.76700000      -0.80760000
H       -1.34030000       1.58600000       0.94700000
H       -1.68770000      -0.71750000      -1.08260000
H       -0.65690000      -1.92220000      -0.29230000
H       -1.77170000      -0.94400000       0.67080000
H        0.54280000      -0.22640000      -2.11200000
H        1.48150000       1.04900000      -1.33290000
H        1.86800000      -1.95190000      -1.07270000
H        3.09380000      -0.69040000      -1.15850000
H        2.50040000      -1.78200000       1.31000000
H        2.52220000       0.36990000       2.51570000
H        2.27090000       2.30930000       1.15450000
H        0.27670000      -0.54860000       2.10970000
