19
Properties=species:S:1:pos:R:3 gdb_116425=T pbc="F F F"
O        0.10360000       1.39850000      -0.05480000
C        0.04490000      -0.01010000      -0.06380000
C       -1.39080000      -0.54250000       0.04950000
C       -1.45900000      -2.08220000      -0.07900000
O       -2.76960000      -2.58120000       0.09540000
C       -3.26910000      -2.31490000       1.38990000
C       -3.38130000      -0.79890000       1.64160000
C       -2.05980000      -0.11400000       1.35060000
O       -1.56920000       0.70390000       2.10340000
H       -0.24190000       1.65940000       0.80940000
H        0.48190000      -0.34040000      -1.01290000
H        0.65390000      -0.44600000       0.74490000
H       -1.99350000      -0.11810000      -0.76580000
H       -1.13770000      -2.39060000      -1.07760000
H       -0.77440000      -2.54380000       0.65310000
H       -4.25070000      -2.79120000       1.45310000
H       -2.61930000      -2.77290000       2.15400000
H       -4.13250000      -0.39050000       0.95350000
H       -3.68980000      -0.57500000       2.66580000
