23
Properties=species:S:1:pos:R:3 gdb_109251=T pbc="F F F"
C       -0.36370000       1.18100000       0.35450000
C       -0.05450000      -0.24250000      -0.14200000
C        0.81870000      -0.28530000      -1.37360000
C        2.04080000      -0.82420000      -1.34610000
C        2.98710000      -0.89110000      -2.51420000
C        2.30930000      -0.71020000      -3.86090000
C        1.11840000      -1.56590000      -4.22130000
C        0.93060000      -0.09960000      -3.91580000
C        0.24720000       0.33380000      -2.63050000
H        0.55940000       1.71990000       0.59160000
H       -0.90700000       1.76270000      -0.39670000
H       -0.98050000       1.15100000       1.25820000
H        0.42910000      -0.80740000       0.66260000
H       -1.00570000      -0.75200000      -0.35440000
H        2.40820000      -1.24010000      -0.40950000
H        3.76090000      -0.11710000      -2.39430000
H        3.53090000      -1.84610000      -2.49210000
H        2.98490000      -0.46370000      -4.67480000
H        1.01170000      -1.89560000      -5.24910000
H        0.77390000      -2.28180000      -3.48170000
H        0.71510000       0.53850000      -4.76800000
H       -0.82940000       0.11380000      -2.68670000
H        0.31210000       1.42870000      -2.54870000
