17
Properties=species:S:1:pos:R:3 gdb_52799=T pbc="F F F"
C        0.04000000       1.48290000      -0.00620000
C        0.03870000       0.02850000       0.00310000
C        0.01880000      -1.17480000       0.02540000
C        0.01330000      -2.61560000       0.00470000
C        1.19980000      -3.25880000      -0.69340000
N       -0.54650000      -3.26840000       1.20500000
C       -1.30570000      -3.35390000      -0.05460000
C       -2.56990000      -2.66220000      -0.10910000
N       -3.58830000      -2.12250000      -0.19450000
H        0.72380000       1.87410000      -0.76710000
H       -0.96030000       1.87310000      -0.22160000
H        0.35390000       1.88360000       0.96370000
H        2.12590000      -3.00360000      -0.16970000
H        1.10080000      -4.34910000      -0.71470000
H        1.28460000      -2.89840000      -1.72220000
H       -0.07390000      -4.15500000       1.37060000
H       -1.30080000      -4.29290000      -0.60260000
