19
Properties=species:S:1:pos:R:3 gdb_36402=T pbc="F F F"
N        0.03630000      -1.17310000      -0.20580000
C        0.02070000      -0.02120000      -0.12320000
C       -0.00240000       1.44060000       0.00870000
N        1.33560000       1.98890000       0.04740000
C        2.16710000       1.74460000       1.25280000
C        2.61490000       3.20610000       1.17810000
C        3.16070000       4.08960000       2.25200000
C        4.01820000       3.71420000       1.06140000
C        1.46110000       3.45790000       0.20510000
H       -0.53300000       1.85560000      -0.85660000
H       -0.60560000       1.68950000       0.90480000
H        1.57130000       1.52420000       2.15390000
H        2.92400000       0.96430000       1.12640000
H        2.78990000       5.10790000       2.31500000
H        3.39400000       3.64220000       3.21300000
H        4.83000000       3.01090000       1.21660000
H        4.22520000       4.47850000       0.31900000
H        1.67650000       3.99440000      -0.72580000
H        0.58640000       3.92130000       0.69200000
