19
Properties=species:S:1:pos:R:3 gdb_63217=T pbc="F F F"
C        0.42780000       1.59010000      -0.30450000
C        0.02520000       0.14190000      -0.00470000
O       -1.36210000       0.14560000       0.26990000
C        0.43660000      -0.79030000      -1.13510000
C        1.49920000      -1.53070000      -0.82600000
C        1.98750000      -1.27110000       0.58380000
C        0.82930000      -0.47340000       1.16960000
C        0.71470000       0.00620000       2.54460000
O        0.01030000      -1.17480000       2.12320000
H        1.50170000       1.67370000      -0.49520000
H       -0.10670000       1.94590000      -1.19040000
H        0.16110000       2.23820000       0.53530000
H       -1.50760000      -0.57020000       0.90510000
H       -0.08820000      -0.78300000      -2.08350000
H        1.99440000      -2.23120000      -1.48900000
H        2.16390000      -2.18210000       1.16530000
H        2.92390000      -0.69670000       0.58910000
H        1.52070000      -0.16940000       3.25540000
H        0.08050000       0.86460000       2.76030000
