19
Properties=species:S:1:pos:R:3 gdb_53442=T pbc="F F F"
C        0.04440000       1.49990000      -0.03060000
C        0.02200000       0.04390000      -0.02010000
C        0.00460000      -1.16040000      -0.02120000
C       -0.01140000      -2.62110000       0.01080000
C        0.73100000      -3.15580000       1.25650000
O        0.58390000      -4.55690000       1.36530000
C       -0.75180000      -4.94800000       1.62130000
C       -1.75420000      -4.22570000       0.76510000
C       -1.42410000      -3.17990000       0.01340000
H        1.07110000       1.88230000      -0.03640000
H       -0.46140000       1.89910000      -0.91680000
H       -0.45780000       1.91340000       0.85100000
H        0.51550000      -2.99700000      -0.87930000
H        1.80280000      -2.95720000       1.18380000
H        0.34280000      -2.64480000       2.15120000
H       -0.79340000      -6.02740000       1.43250000
H       -0.99970000      -4.80330000       2.68950000
H       -2.77440000      -4.59980000       0.78890000
H       -2.15670000      -2.67750000      -0.61030000
