19
Properties=species:S:1:pos:R:3 gdb_74634=T pbc="F F F"
C       -0.10580000       1.53530000       0.00300000
C       -0.03620000       0.04650000      -0.03790000
C       -0.07050000      -0.80300000      -1.07470000
C        0.04620000      -2.17810000      -0.45580000
C       -0.74040000      -2.15470000       0.89540000
O        0.24760000      -3.01330000       1.55510000
C        1.04730000      -2.06350000       0.76060000
C        2.53770000      -2.16960000       0.79760000
C        0.10140000      -0.86660000       1.17060000
H        0.78660000       1.96660000       0.47470000
H       -0.19460000       1.95670000      -1.00230000
H       -0.96440000       1.88060000       0.59320000
H       -0.15690000      -0.57530000      -2.12890000
H        0.04620000      -3.08650000      -1.05670000
H       -1.79760000      -2.34940000       1.09110000
H        2.86000000      -3.15530000       0.44850000
H        2.98020000      -1.40630000       0.14980000
H        2.90920000      -2.02440000       1.81670000
H        0.15650000      -0.46910000       2.18400000
