17
Properties=species:S:1:pos:R:3 gdb_32538=T pbc="F F F"
O       -0.04470000       1.43150000       0.00730000
C        0.01330000       0.01490000       0.00170000
C       -1.38220000      -0.51990000       0.01210000
C       -2.53190000       0.20370000       0.02350000
O       -3.61620000      -0.61640000       0.03070000
C       -3.14600000      -1.89190000       0.02340000
C       -1.78750000      -1.90330000       0.01200000
C       -0.90130000      -3.10660000       0.00130000
O       -1.71480000      -4.26790000       0.00990000
H        0.85520000       1.76880000       0.00110000
H        0.55050000      -0.35780000      -0.88810000
H        0.56610000      -0.36430000       0.87910000
H       -2.72760000       1.26140000       0.02790000
H       -3.88150000      -2.67680000       0.02790000
H       -0.24980000      -3.08390000      -0.88980000
H       -0.22960000      -3.08470000       0.87740000
H       -1.13910000      -5.03760000       0.00250000
