19
Properties=species:S:1:pos:R:3 gdb_66902=T pbc="F F F"
C       -0.04240000       1.51290000      -0.01750000
C        0.00130000       0.00860000      -0.00290000
C       -0.21700000      -0.86770000      -1.20380000
C        0.91160000      -1.80730000      -1.28740000
C        1.69570000      -1.71380000      -0.20170000
C        1.07670000      -0.76770000       0.82300000
C        0.24840000      -1.73770000       1.66020000
C       -0.99600000      -1.83890000       1.16670000
C       -1.20520000      -0.88410000       0.06760000
H        0.89080000       1.93460000      -0.40890000
H       -0.86120000       1.87290000      -0.64940000
H       -0.19680000       1.91650000       0.99000000
H       -0.68600000      -0.47670000      -2.10050000
H        1.04500000      -2.51140000      -2.10050000
H        2.54800000      -2.34440000       0.02340000
H        1.78120000      -0.14280000       1.37860000
H        0.68480000      -2.37520000       2.42050000
H       -1.74210000      -2.55760000       1.48510000
H       -2.19470000      -0.50180000      -0.15950000
