19
Properties=species:S:1:pos:R:3 gdb_126624=T pbc="F F F"
C        0.05960000       1.55310000       0.07370000
C        0.02930000       0.02360000       0.04000000
C        0.62670000      -0.53560000      -1.25610000
N        0.65430000      -1.98620000      -1.28480000
N        1.63920000      -2.67130000      -0.63950000
C        1.33370000      -3.94880000      -0.82480000
C        0.15320000      -4.12020000      -1.58020000
C       -0.24590000      -2.82470000      -1.84640000
O       -1.29650000      -2.29430000      -2.51600000
H        1.08480000       1.93190000      -0.00400000
H       -0.51630000       1.98320000      -0.75350000
H       -0.36500000       1.93440000       1.00670000
H        0.59320000      -0.38880000       0.88350000
H       -1.00140000      -0.33640000       0.14010000
H        0.05200000      -0.19890000      -2.12360000
H        1.65870000      -0.19390000      -1.37750000
H        1.97470000      -4.71520000      -0.41320000
H       -0.32980000      -5.03370000      -1.88660000
H       -1.80690000      -3.01240000      -2.90190000
