21
Properties=species:S:1:pos:R:3 gdb_69319=T pbc="F F F"
C       -0.04290000       1.53950000      -0.00410000
C        0.03900000       0.01320000       0.00110000
O       -1.27720000      -0.55300000       0.05910000
C        0.81690000      -0.57050000      -1.21150000
C        1.31680000      -1.95200000      -0.74300000
C        1.53030000      -1.78550000       0.75600000
O        1.53490000      -2.93070000       1.55320000
C        2.27390000      -0.55710000       1.22270000
C        0.75560000      -0.58000000       1.20480000
H        0.95180000       1.99140000       0.05450000
H       -0.52010000       1.90200000      -0.92350000
H       -0.63460000       1.88900000       0.84690000
H       -1.78630000      -0.18180000      -0.66960000
H        0.17350000      -0.62720000      -2.09470000
H        1.65770000       0.08090000      -1.47250000
H        0.54210000      -2.71220000      -0.88450000
H        2.21450000      -2.28010000      -1.27980000
H        2.39080000      -3.36060000       1.44950000
H        2.72490000      -0.62940000       2.20620000
H        2.82370000       0.06080000       0.51920000
H        0.22680000      -0.58100000       2.15040000
