19
Properties=species:S:1:pos:R:3 gdb_93222=T pbc="F F F"
C       -0.00340000       1.53630000       0.06280000
C        0.01220000       0.01780000      -0.02490000
C        0.68760000      -0.50450000      -1.29780000
C        0.72350000      -2.04130000      -1.29850000
O        1.45580000      -2.55510000      -2.37350000
C        1.27260000      -2.54310000       0.02960000
O        2.10790000      -3.41950000       0.06380000
C        0.70230000      -1.86270000       1.26690000
O        0.71430000      -0.45560000       1.12790000
H        1.01740000       1.92910000       0.03890000
H       -0.56020000       1.96260000      -0.77650000
H       -0.47440000       1.85850000       0.99490000
H       -1.02540000      -0.36090000       0.01510000
H        0.16200000      -0.15190000      -2.19130000
H        1.71520000      -0.12640000      -1.34440000
H       -0.32380000      -2.40200000      -1.33620000
H        2.04430000      -3.22370000      -1.98800000
H       -0.32360000      -2.23820000       1.43600000
H        1.31260000      -2.11790000       2.13560000
