15
Properties=species:S:1:pos:R:3 gdb_46654=T pbc="F F F"
O       -0.00660000      -0.03960000       0.09290000
C       -0.01690000       1.15840000       0.00680000
N       -1.11470000       1.97880000      -0.07210000
C       -0.81890000       3.39630000      -0.01670000
C        0.70870000       3.37990000      -0.00270000
C        1.41120000       2.78100000       1.17440000
C        0.71490000       2.50300000       2.39690000
C        0.14930000       2.29100000       3.43660000
N        1.17300000       1.99070000      -0.07570000
H       -2.02920000       1.59530000       0.10040000
H       -1.18780000       3.92610000      -0.90240000
H       -1.24140000       3.87600000       0.87550000
H        1.23720000       4.10390000      -0.61400000
H        2.46340000       3.02360000       1.29790000
H       -0.34130000       2.08520000       4.35610000
