15
Properties=species:S:1:pos:R:3 gdb_133589=T pbc="F F F"
F        0.05240000       0.11280000      -0.33770000
C        0.02240000       1.42740000      -0.04640000
F        1.28680000       1.85960000      -0.01490000
F       -0.59890000       2.03740000      -1.07070000
C       -0.70280000       1.74290000       1.24900000
C       -2.04700000       1.03960000       1.56460000
C       -1.38580000       0.60380000       2.87340000
C       -0.16480000      -0.17630000       2.62030000
N       -0.06820000       1.30130000       2.53930000
H       -0.78970000       2.83140000       1.27860000
H       -2.86910000       1.74510000       1.68630000
H       -2.36310000       0.23380000       0.89760000
H       -1.83110000       0.69630000       3.85780000
H        0.37100000      -0.55520000       3.48460000
H       -0.06930000      -0.77990000       1.72540000
