21
Properties=species:S:1:pos:R:3 gdb_58452=T pbc="F F F"
C        0.12240000       1.45440000      -0.16980000
C       -0.07400000      -0.04730000       0.04460000
O        0.67700000      -0.51210000       1.16370000
C       -1.54480000      -0.49050000       0.14170000
C       -2.30700000       0.17340000       1.29020000
C       -2.32500000      -0.42700000      -1.21850000
C       -2.65380000      -1.91810000      -1.04500000
O       -3.40680000      -2.66620000      -1.59770000
C       -1.70900000      -2.05030000       0.15420000
H        1.18500000       1.67360000      -0.30360000
H       -0.41760000       1.80960000      -1.05290000
H       -0.23440000       2.03010000       0.69210000
H        0.36530000      -0.57800000      -0.81060000
H        0.47930000       0.05950000       1.91290000
H       -2.38500000       1.25730000       1.16020000
H       -3.32630000      -0.22110000       1.35710000
H       -1.82300000      -0.02550000       2.25310000
H       -3.18230000       0.24900000      -1.28170000
H       -1.68280000      -0.25370000      -2.09000000
H       -0.78840000      -2.58840000      -0.09470000
H       -2.13770000      -2.50620000       1.05090000
