16
Properties=species:S:1:pos:R:3 gdb_69760=T pbc="F F F"
O       -0.09140000       1.43050000       0.04960000
C       -0.01070000       0.05350000       0.04170000
C       -0.24760000      -0.77520000      -1.18280000
C       -1.16250000      -0.94360000       0.01220000
C       -0.48130000      -1.76360000       1.14340000
N        0.50420000      -2.79610000       0.80570000
C        1.59440000      -1.93660000       0.76640000
O        2.74840000      -2.10960000       0.48350000
C        0.68790000      -0.74750000       1.18310000
H        0.64070000       1.78080000      -0.47090000
H       -0.70360000      -0.21950000      -1.99600000
H        0.43210000      -1.56260000      -1.49650000
H       -2.22800000      -0.76570000      -0.05840000
H       -1.09550000      -1.97300000       2.01850000
H        0.39850000      -3.71280000       0.39420000
H        0.92750000      -0.17530000       2.07610000
