20
Properties=species:S:1:pos:R:3 gdb_104574=T pbc="F F F"
C        1.85250000       0.80050000      -2.27820000
C        1.57020000      -0.67620000      -2.16080000
N        2.22250000      -1.64830000      -2.64770000
O        0.44910000      -0.86260000      -1.41570000
C       -0.02590000      -2.19170000      -1.20620000
C        0.74550000      -2.92730000      -0.13700000
O        0.65010000      -2.28730000       1.12720000
C       -1.51900000      -2.30210000      -1.27690000
C       -0.65210000      -2.90050000      -2.36570000
H        2.74930000       0.98120000      -2.87280000
H        1.00320000       1.31070000      -2.74280000
H        1.98710000       1.24060000      -1.28530000
H        3.02300000      -1.30740000      -3.17550000
H        0.31790000      -3.92690000      -0.01160000
H        1.78970000      -3.04310000      -0.45470000
H        0.91000000      -1.36970000       0.99360000
H       -2.00910000      -2.95910000      -0.56730000
H       -2.06660000      -1.39780000      -1.51580000
H       -0.62470000      -2.39640000      -3.32390000
H       -0.54010000      -3.97770000      -2.42320000
