17
Properties=species:S:1:pos:R:3 gdb_113527=T pbc="F F F"
O        0.05450000       1.33430000      -0.46470000
C        0.05850000       0.11700000       0.25710000
C       -1.32090000      -0.49670000       0.30500000
N       -1.75890000      -1.09970000      -0.97200000
C       -1.54430000      -1.95320000       0.18570000
C       -0.61890000      -3.18300000       0.27920000
N       -1.72690000      -3.83160000       0.99930000
C       -2.61000000      -2.78030000       0.90110000
O       -3.75490000      -2.61380000       1.22870000
H       -0.28580000       1.12620000      -1.34280000
H        0.76500000      -0.60690000      -0.17730000
H        0.40250000       0.35720000       1.26860000
H       -2.06530000       0.05870000       0.87250000
H       -2.76000000      -0.96800000      -1.10790000
H       -0.38010000      -3.63830000      -0.68630000
H        0.29050000      -3.05780000       0.87460000
H       -1.82900000      -4.75910000       1.38040000
