15
Properties=species:S:1:pos:R:3 gdb_20381=T pbc="F F F"
C        0.09070000       1.44930000      -0.29250000
C        1.45430000       2.01150000       0.25190000
C        2.13930000       0.73880000       0.62620000
C        1.32090000      -0.35660000       0.62990000
C       -0.08720000      -0.01270000       0.24780000
N        2.02020000      -1.45010000       1.02500000
N        3.25050000      -1.08170000       1.26590000
N        3.33130000       0.26020000       1.03200000
H       -0.74790000       2.09580000      -0.02390000
H        0.13820000       1.42090000      -1.38470000
H        1.98030000       2.60530000      -0.50230000
H        1.30730000       2.66100000       1.12420000
H       -0.75820000      -0.04360000       1.11480000
H       -0.51630000      -0.67440000      -0.50980000
H        4.21860000       0.71860000       1.16030000
