21
Properties=species:S:1:pos:R:3 gdb_80548=T pbc="F F F"
C       -0.12560000       1.50010000       0.03650000
C        0.08930000      -0.01190000       0.08090000
C        1.00760000      -0.58840000      -1.06570000
C        2.04220000      -1.34210000      -0.21390000
C        1.12050000      -2.03750000       0.85140000
O        1.71600000      -2.90990000       1.76720000
C        0.87620000      -0.55020000       1.29440000
C        2.34860000      -0.27650000       0.88220000
O        3.25540000      -0.67680000       1.90620000
H        0.81880000       2.05180000       0.08880000
H       -0.62510000       1.79280000      -0.89370000
H       -0.75250000       1.83450000       0.87020000
H       -0.89270000      -0.49710000       0.05070000
H        0.46620000      -1.24960000      -1.74780000
H        1.45990000       0.21030000      -1.66330000
H        2.83890000      -1.88580000      -0.72560000
H        0.24580000      -2.55920000       0.44880000
H        2.45150000      -2.42430000       2.16660000
H        0.51590000      -0.30280000       2.29390000
H        2.60440000       0.73350000       0.53730000
H        4.13460000      -0.73420000       1.51690000
