23
Properties=species:S:1:pos:R:3 gdb_109670=T pbc="F F F"
C       -0.33030000       1.20430000      -0.08060000
C        0.32150000      -0.18530000      -0.08100000
C        0.87800000      -0.59270000       1.27480000
C        2.11880000       0.14530000       1.74060000
C       -0.11270000      -1.01250000       2.35530000
O       -1.47990000      -1.06600000       2.07740000
C        0.76930000      -2.05100000       1.72190000
O        0.05780000      -2.97860000       0.95990000
C        0.84070000      -3.64310000      -0.01590000
H        0.37760000       1.98780000       0.20850000
H       -0.70730000       1.45540000      -1.07730000
H       -1.17020000       1.22630000       0.61860000
H       -0.41910000      -0.92160000      -0.40430000
H        1.13310000      -0.21320000      -0.82090000
H        1.93500000       1.22110000       1.83360000
H        2.45210000      -0.21220000       2.72080000
H        2.94980000       0.00550000       1.03850000
H        0.08840000      -0.70850000       3.38020000
H       -1.63440000      -1.90030000       1.61540000
H        1.59820000      -2.48270000       2.28570000
H        1.66970000      -4.19360000       0.45150000
H        0.18510000      -4.35310000      -0.52520000
H        1.25500000      -2.94000000      -0.74970000
