19
Properties=species:S:1:pos:R:3 gdb_107934=T pbc="F F F"
C       -0.05260000       1.46140000       0.05220000
C        0.06040000      -0.02850000      -0.06180000
C        0.91990000      -0.84860000      -1.02830000
C        0.09760000      -2.06630000      -0.53200000
C        0.02590000      -3.39390000      -1.22630000
O        1.29890000      -4.01580000      -1.24170000
O        0.54040000      -2.20260000       0.86450000
C       -0.18070000      -0.99630000       1.11270000
C       -1.05270000      -1.08100000      -0.09310000
H        0.89850000       1.90590000       0.36720000
H       -0.33390000       1.91710000      -0.90390000
H       -0.81160000       1.74660000       0.78930000
H        0.68940000      -0.60470000      -2.06950000
H        2.00210000      -0.89760000      -0.87440000
H       -0.72930000      -4.02380000      -0.73100000
H       -0.27790000      -3.25830000      -2.26960000
H        1.60610000      -4.03120000      -0.32740000
H       -0.37220000      -0.69560000       2.13480000
H       -2.12060000      -1.03680000      -0.25910000
