17
Properties=species:S:1:pos:R:3 gdb_33803=T pbc="F F F"
C        0.01730000      -1.19010000      -0.01340000
C        0.00440000       0.01210000      -0.00390000
C       -0.00950000       1.45910000       0.00490000
C       -0.65640000       2.18730000       1.23690000
C       -0.35440000       3.59280000       0.64010000
C        1.16290000       3.42500000       0.42210000
C        1.37260000       2.16700000       0.04350000
C       -1.04280000       3.41080000      -0.72770000
C       -0.83980000       2.15270000      -1.10970000
H        0.02670000      -2.25180000      -0.01800000
H       -1.72270000       1.97190000       1.33680000
H       -0.12560000       1.98220000       2.16940000
H       -0.66140000       4.46350000       1.21820000
H        1.88760000       4.22250000       0.51510000
H        2.29300000       1.67860000      -0.24320000
H       -1.54210000       4.20030000      -1.27270000
H       -1.12680000       1.65650000      -2.02580000
