12
Properties=species:S:1:pos:R:3 gdb_14567=T pbc="F F F"
N       -0.09950000      -1.13690000      -0.46910000
C       -0.04980000      -0.01250000      -0.21280000
C       -0.00020000       1.41780000       0.11670000
C        1.35830000       1.95560000       0.10800000
C        2.47130000       2.40420000       0.09970000
C        3.82990000       2.94200000       0.08830000
C        3.87330000       4.37570000      -0.22670000
N        3.91820000       5.50280000      -0.47180000
H       -0.62740000       1.96090000      -0.60160000
H       -0.46340000       1.56250000       1.10090000
H        4.31170000       2.78680000       1.06190000
H        4.44320000       2.40660000      -0.64760000
