27
Properties=species:S:1:pos:R:3 gdb_101676=T pbc="F F F"
C       -0.04320000       1.52980000      -0.33380000
C       -0.24080000       0.07980000       0.11210000
C        0.63710000      -0.33470000       1.29610000
C        0.33160000      -1.76940000       1.73960000
O        1.98870000      -0.16760000       0.88240000
C        2.99960000      -0.25030000       1.88900000
C        3.82700000      -1.52050000       1.67940000
C        3.86980000       1.01020000       1.81320000
C        3.12760000       2.29730000       2.17700000
H        0.99200000       1.70090000      -0.63770000
H       -0.69340000       1.77220000      -1.18020000
H       -0.27870000       2.23000000       0.47590000
H       -1.28810000      -0.08800000       0.39110000
H       -0.02610000      -0.59850000      -0.72340000
H        0.43460000       0.34560000       2.14190000
H        0.52800000      -2.47130000       0.92240000
H        0.93850000      -2.06540000       2.60000000
H       -0.72020000      -1.86180000       2.03010000
H        2.52340000      -0.28610000       2.88130000
H        4.61560000      -1.60340000       2.43460000
H        3.19990000      -2.41370000       1.73670000
H        4.29760000      -1.50160000       0.69110000
H        4.73220000       0.87690000       2.47820000
H        4.26830000       1.08260000       0.79340000
H        3.78180000       3.16990000       2.08520000
H        2.26800000       2.45100000       1.51960000
H        2.76150000       2.26620000       3.20990000
