19
Properties=species:S:1:pos:R:3 gdb_78012=T pbc="F F F"
C       -0.09690000       1.57990000       0.06860000
C        0.08550000       0.07560000       0.08630000
C        1.34040000      -0.67120000      -0.21160000
C        2.60280000      -0.04720000       0.37900000
O        3.00660000       1.14590000      -0.25860000
C        1.94180000       0.02190000       1.79780000
C        0.71480000      -0.69160000       1.23310000
C        0.06540000      -1.85330000       1.84460000
O        0.31660000      -2.28350000       2.94690000
H        0.80680000       2.10890000       0.36910000
H       -0.34180000       1.90910000      -0.94660000
H       -0.92100000       1.87610000       0.72630000
H       -0.77970000      -0.45990000      -0.30580000
H        1.34940000      -1.48990000      -0.92190000
H        3.41690000      -0.78340000       0.37870000
H        3.82790000       1.44020000       0.14880000
H        2.45880000      -0.57600000       2.54980000
H        1.77020000       1.02720000       2.19030000
H       -0.69690000      -2.34340000       1.19340000
