19
Properties=species:S:1:pos:R:3 gdb_60626=T pbc="F F F"
C        0.45430000       1.52260000      -0.40790000
C        0.16830000       0.09500000      -0.02570000
O        1.29000000      -0.78550000       0.16040000
C        0.45320000      -0.50880000       1.28610000
C        1.05790000       0.24810000       2.46410000
O        0.02430000       0.67820000       3.30670000
C        2.01850000      -0.66600000       3.24320000
C        3.30380000      -1.08740000       2.58130000
O        1.70580000      -0.99840000       4.36760000
H        1.27230000       1.94950000       0.17540000
H        0.72980000       1.57860000      -1.46600000
H       -0.43890000       2.13790000      -0.25840000
H       -0.64230000      -0.36740000      -0.59220000
H       -0.17300000      -1.34420000       1.60570000
H        1.63800000       1.10360000       2.08970000
H        0.16500000       0.19160000       4.13750000
H        3.97300000      -0.22000000       2.52520000
H        3.78640000      -1.87160000       3.16580000
H        3.12480000      -1.41170000       1.55290000
