13
Properties=species:S:1:pos:R:3 gdb_131000=T pbc="F F F"
O       -0.22310000       0.20620000       0.50650000
C        0.04700000       1.12920000      -0.21200000
C        1.37150000       1.86730000      -0.13700000
O        1.33940000       2.89400000      -1.13070000
C        2.42180000       3.65390000      -1.21860000
N        3.48720000       3.51600000      -0.46380000
O        4.32680000       4.53790000      -0.94270000
C        3.65250000       5.14740000      -1.91620000
N        2.47440000       4.66410000      -2.14710000
H       -0.64760000       1.51760000      -0.98780000
H        1.51070000       2.29710000       0.86230000
H        2.20270000       1.17540000      -0.31900000
H        4.14200000       5.97240000      -2.41310000
