11
Properties=species:S:1:pos:R:3 gdb_130580=T pbc="F F F"
O        0.00690000      -0.03830000       0.00360000
C       -0.06040000       1.15530000       0.00690000
C        1.12060000       2.02360000       0.00080000
N        2.12130000       2.60030000      -0.00470000
N       -1.27380000       1.87370000       0.01700000
N       -1.30120000       3.22110000       0.02040000
C       -2.58910000       3.49780000       0.03010000
C       -3.31910000       2.27870000       0.03210000
N       -2.47270000       1.26730000       0.02380000
H       -2.94130000       4.51730000       0.03500000
H       -4.38490000       2.11120000       0.03910000
