14
Properties=species:S:1:pos:R:3 gdb_43509=T pbc="F F F"
N        0.03680000       1.14460000       0.43520000
C        0.00640000      -0.03610000       0.00200000
C       -1.21990000      -0.90670000      -0.09830000
C       -0.74750000      -2.14410000      -0.83590000
O       -1.39610000      -3.02740000      -1.31460000
C        0.80510000      -2.04940000      -0.88440000
O        1.11120000      -0.70980000      -0.47000000
C        1.42660000      -3.03790000      -0.01690000
C        1.91300000      -3.86020000       0.71070000
H        0.98620000       1.52030000       0.39810000
H       -1.58210000      -1.18990000       0.89650000
H       -2.04430000      -0.40980000      -0.61340000
H        1.13980000      -2.17660000      -1.92020000
H        2.35190000      -4.58840000       1.34800000
