14
Properties=species:S:1:pos:R:3 gdb_13053=T pbc="F F F"
O       -0.68380000       0.60660000       0.65050000
C        0.08710000       0.89400000      -0.22760000
C        1.29400000       1.79790000      -0.02680000
C        1.35660000       2.91630000      -1.07160000
C        2.65110000       3.74380000      -1.20420000
O        2.82040000       3.27810000      -2.58240000
C        1.69750000       2.49570000      -2.50890000
O        1.25880000       1.76500000      -3.33770000
H       -0.03440000       0.50690000      -1.26130000
H        1.25630000       2.20500000       0.98750000
H        2.19430000       1.17240000      -0.11100000
H        0.45370000       3.53280000      -1.03670000
H        2.54360000       4.82910000      -1.17200000
H        3.48930000       3.41920000      -0.58360000
