20
Properties=species:S:1:pos:R:3 gdb_15669=T pbc="F F F"
C        0.19320000       1.61480000      -0.34430000
O       -0.30570000       0.30550000      -0.48080000
C        0.59230000      -0.58750000      -1.10170000
C        1.83090000      -0.98250000      -0.24860000
C        2.05510000      -2.41890000      -0.65310000
C        1.01380000      -2.91960000      -1.31640000
C       -0.11900000      -1.92690000      -1.45200000
C       -1.30240000      -2.26740000      -0.52930000
H        1.06690000       1.66190000       0.32260000
H        0.48200000       2.04260000      -1.31790000
H       -0.60630000       2.22400000       0.08480000
H        0.95730000      -0.13740000      -2.03980000
H        2.69910000      -0.34210000      -0.43990000
H        1.60170000      -0.89500000       0.82300000
H        2.95920000      -2.96310000      -0.40210000
H        0.93460000      -3.93820000      -1.68170000
H       -0.49710000      -1.88790000      -2.48120000
H       -0.98690000      -2.32190000       0.51690000
H       -2.08440000      -1.50900000      -0.60730000
H       -1.72800000      -3.23830000      -0.80370000
