21
Properties=species:S:1:pos:R:3 gdb_60375=T pbc="F F F"
C       -0.26770000       1.50930000       0.00470000
C        0.09430000       0.02970000      -0.14960000
O        0.93400000      -0.19120000      -1.27370000
C        0.74920000      -0.55140000       1.10460000
O        1.99620000       0.10920000       1.26700000
C        2.75490000      -0.27670000       2.39740000
C        3.45160000      -1.62950000       2.25920000
C        3.75050000       0.85640000       2.63610000
O        4.76330000       0.74300000       3.27340000
H        0.61910000       2.09720000       0.25850000
H       -0.68080000       1.88800000      -0.93330000
H       -1.01130000       1.65380000       0.79610000
H       -0.81760000      -0.54790000      -0.34350000
H        1.80960000       0.12240000      -1.01700000
H        0.11500000      -0.39560000       1.99200000
H        0.89750000      -1.63100000       0.96800000
H        2.10050000      -0.29030000       3.28960000
H        2.73630000      -2.45500000       2.26810000
H        4.01880000      -1.66570000       1.32460000
H        4.14740000      -1.75710000       3.09170000
H        3.43960000       1.81870000       2.17330000
