18
Properties=species:S:1:pos:R:3 gdb_71439=T pbc="F F F"
C       -0.02090000       1.50290000      -0.01910000
C       -0.03080000       0.00180000      -0.01300000
C       -1.27460000      -0.88040000      -0.12550000
C       -0.47830000      -2.04650000       0.56540000
C        0.59940000      -1.00290000       0.97350000
C        1.18830000      -0.82580000      -0.38050000
O        1.05670000      -1.99890000      -1.17490000
C        0.17630000      -2.84310000      -0.53290000
N       -0.06400000      -4.03540000      -0.86600000
H        0.97370000       1.89820000       0.21300000
H       -0.31200000       1.89230000      -1.00170000
H       -0.72080000       1.90710000       0.72090000
H       -2.06670000      -0.51910000       0.53510000
H       -1.69050000      -1.07370000      -1.12000000
H       -0.99430000      -2.64480000       1.30930000
H        1.09950000      -0.88290000       1.92560000
H        2.13270000      -0.32310000      -0.54360000
H        0.49860000      -4.30170000      -1.67630000
