20
Properties=species:S:1:pos:R:3 gdb_14859=T pbc="F F F"
C       -0.01030000       1.54730000       0.03060000
C       -0.08080000       0.01700000      -0.00710000
C        0.68860000      -0.57350000      -1.18390000
C        2.24180000      -0.52630000      -1.20140000
C        2.24680000      -1.94220000      -1.83160000
C        0.76120000      -2.13610000      -1.38660000
C        0.63980000      -2.92150000      -0.11000000
O       -0.22070000      -3.73390000       0.11970000
H        1.02520000       1.89570000       0.11070000
H       -0.43730000       1.98510000      -0.87850000
H       -0.56270000       1.94880000       0.88540000
H        0.30970000      -0.38750000       0.93550000
H       -1.12870000      -0.30440000      -0.06470000
H        0.30260000      -0.14270000      -2.11540000
H        2.71950000       0.27920000      -1.76360000
H        2.65550000      -0.52900000      -0.18750000
H        2.32860000      -1.91690000      -2.92050000
H        2.97430000      -2.66260000      -1.44780000
H        0.06360000      -2.55700000      -2.11340000
H        1.43200000      -2.70860000       0.64730000
