22
Properties=species:S:1:pos:R:3 gdb_110445=T pbc="F F F"
C       -1.16210000       1.08760000       0.53060000
C        0.22120000       0.66570000       0.01910000
C        1.03000000      -0.06200000       1.09080000
C        0.81920000      -1.51890000       1.47390000
C        1.79520000      -2.39310000       0.74300000
C        2.68960000      -1.55150000      -0.15170000
C        2.43110000      -1.32300000      -1.63680000
C        2.51380000      -0.48650000       0.96000000
N        2.23050000      -1.65020000       1.97510000
H       -1.07780000       1.75810000       1.39310000
H       -1.73100000       1.61020000      -0.24430000
H       -1.75050000       0.21850000       0.84470000
H        0.09770000       0.04030000      -0.86870000
H        0.77770000       1.55540000      -0.30410000
H        0.96740000       0.51670000       2.02250000
H       -0.00530000      -1.94790000       2.03400000
H        1.69760000      -3.47400000       0.75430000
H        3.70790000      -1.94110000      -0.02930000
H        3.03750000      -0.49250000      -2.01530000
H        2.70960000      -2.21560000      -2.20770000
H        1.38590000      -1.10540000      -1.86100000
H        3.31070000       0.22570000       1.17140000
