19
Properties=species:S:1:pos:R:3 gdb_64167=T pbc="F F F"
C       -0.40670000       1.49920000       0.26760000
C        0.03860000       0.06320000       0.02690000
C       -1.10220000      -0.79750000      -0.51890000
N        1.29470000      -0.03720000      -0.77690000
C        1.88610000      -1.00970000       0.16290000
C        0.81520000      -0.61990000       1.22380000
O        1.23650000       0.34520000       2.15980000
C        0.15060000      -1.73530000       1.90720000
N       -0.34460000      -2.61830000       2.46590000
H        0.41420000       2.09910000       0.65890000
H       -0.73620000       1.93650000      -0.68110000
H       -1.24360000       1.54110000       0.97190000
H       -1.43780000      -0.38870000      -1.47830000
H       -0.79240000      -1.83470000      -0.67890000
H       -1.95930000      -0.80540000       0.16140000
H        1.15690000      -0.39190000      -1.71730000
H        1.82380000      -2.06260000      -0.13790000
H        2.91410000      -0.78090000       0.46390000
H        1.82380000      -0.07990000       2.79510000
