15
Properties=species:S:1:pos:R:3 gdb_31465=T pbc="F F F"
C        0.22660000       0.61840000       0.69070000
O        0.22950000       0.87880000      -0.70680000
C        0.68020000      -0.12980000      -1.47260000
C        1.15330000      -1.39040000      -1.21020000
C        1.47370000      -1.96760000      -2.48930000
C        1.18190000      -1.03560000      -3.46290000
N        0.69910000       0.07860000      -2.82870000
C        1.99660000      -3.26310000      -2.71700000
N        2.42460000      -4.32610000      -2.89060000
H       -0.41890000      -0.23580000       0.92770000
H        1.24160000       0.41500000       1.05240000
H       -0.16170000       1.51740000       1.16970000
H        1.26760000      -1.86400000      -0.25090000
H        1.28010000      -1.08420000      -4.53370000
H        0.39880000       0.93230000      -3.26780000
