14
Properties=species:S:1:pos:R:3 gdb_133271=T pbc="F F F"
C       -0.18550000       1.41230000       0.03880000
N       -0.11700000      -0.02560000      -0.08170000
C        0.58790000      -0.60270000      -0.98030000
C        1.43370000       0.00050000      -2.02750000
N        2.13570000      -0.60010000      -2.92310000
O        2.11970000      -1.98330000      -2.93620000
C        1.37640000      -2.65290000      -2.01930000
C        0.63730000      -2.04990000      -1.07720000
F       -0.06200000      -2.77530000      -0.21680000
H        0.39950000       1.99990000      -0.68170000
H       -1.23410000       1.72220000      -0.04610000
H        0.13890000       1.69590000       1.04730000
H        1.51320000       1.07940000      -2.10140000
H        1.45130000      -3.72560000      -2.13910000
