20
Properties=species:S:1:pos:R:3 gdb_62834=T pbc="F F F"
C       -0.12330000       1.40940000       0.52140000
C       -0.05400000      -0.01360000      -0.03250000
C       -1.45230000      -0.49630000      -0.41410000
C        1.11980000      -0.32310000      -0.98040000
O        2.09340000      -0.06760000       0.15680000
C        1.00350000      -0.95300000       0.68750000
C        0.62470000      -2.19750000       1.52230000
N        0.18010000      -2.76950000       0.17580000
C        1.16430000      -1.84240000      -0.48920000
H        0.85640000       1.76610000       0.83720000
H       -0.51560000       2.09450000      -0.23890000
H       -0.80990000       1.44980000       1.37460000
H       -1.93490000       0.27040000      -1.03170000
H       -1.45430000      -1.43940000      -0.95500000
H       -2.07180000      -0.62430000       0.48070000
H        1.41350000       0.13940000      -1.92840000
H        1.48850000      -2.71420000       1.95710000
H       -0.17730000      -2.10220000       2.25980000
H        0.41180000      -3.74980000       0.04680000
H        2.16300000      -2.26890000      -0.61150000
