14
Properties=species:S:1:pos:R:3 gdb_130365=T pbc="F F F"
N       -0.00680000       1.30810000      -0.00860000
C        0.07250000      -0.03170000       0.06540000
N        1.20100000      -0.64140000      -0.06450000
C        1.21380000      -2.00330000      -0.02020000
N        2.28090000      -2.75660000       0.00750000
C        1.73980000      -4.01650000       0.04350000
N        2.53960000      -5.12820000       0.14400000
N        0.42600000      -4.07950000       0.02510000
O        0.06390000      -2.70810000      -0.01270000
H        0.83580000       1.84380000      -0.14410000
H       -0.87390000       1.78920000       0.14430000
H       -0.88070000      -0.53760000       0.23840000
H        3.46240000      -4.99620000      -0.24120000
H        2.09790000      -5.99080000      -0.13680000
