18
Properties=species:S:1:pos:R:3 gdb_71775=T pbc="F F F"
O       -0.06270000       1.36720000      -0.06260000
C        0.02320000      -0.02310000      -0.05080000
C        0.98670000      -0.71770000      -1.00360000
C        0.38100000      -2.10060000      -1.15560000
C        0.01050000      -2.83500000       0.08070000
C        0.27840000      -2.14900000       1.41080000
C       -0.33590000      -0.77280000       1.21700000
C       -1.24250000      -0.83740000      -0.00320000
N       -1.03950000      -2.11400000      -0.69210000
H        0.64950000       1.71760000       0.48340000
H        0.99050000      -0.18390000      -1.95970000
H        2.01860000      -0.74940000      -0.63190000
H        0.58160000      -2.65650000      -2.06660000
H       -0.05000000      -3.91930000       0.05800000
H       -0.22420000      -2.68250000       2.22500000
H        1.34810000      -2.11760000       1.65080000
H       -0.62560000      -0.17420000       2.07390000
H       -2.23140000      -0.40050000      -0.04290000
