21
Properties=species:S:1:pos:R:3 gdb_82532=T pbc="F F F"
C        0.01600000       1.57230000       0.01770000
C        0.08470000       0.06290000       0.08200000
C        1.34990000      -0.72190000      -0.11210000
O        2.48630000      -0.01370000       0.40540000
C        1.92320000      -0.09040000       1.72580000
C        2.77670000      -0.45380000       2.89500000
C        2.19080000       0.94790000       2.76260000
C        0.65550000      -0.75890000       1.23660000
C       -0.09440000      -1.83740000       1.96200000
H        0.97080000       2.01740000       0.30390000
H       -0.21410000       1.90190000      -1.00130000
H       -0.76220000       1.96650000       0.68000000
H       -0.77350000      -0.44840000      -0.35380000
H        1.53650000      -1.47680000      -0.86790000
H        2.36940000      -1.11580000       3.65230000
H        3.83860000      -0.57170000       2.70900000
H        2.87370000       1.74680000       2.49410000
H        1.38690000       1.24250000       3.42930000
H       -0.68940000      -1.42860000       2.78820000
H       -0.78710000      -2.35140000       1.28840000
H        0.58670000      -2.58750000       2.37850000
