14
Properties=species:S:1:pos:R:3 gdb_24847=T pbc="F F F"
N        0.02170000       1.04630000      -0.86580000
C        0.00360000       0.02730000      -0.09170000
N       -1.20950000      -0.50460000       0.29400000
C       -1.46560000      -1.54620000       1.19580000
N       -2.46860000      -1.43680000       1.97040000
N       -0.71640000      -2.72600000       1.06450000
C        0.54020000      -2.76350000       0.86950000
N        1.49550000      -1.74060000       0.88710000
C        1.25010000      -0.55800000       0.48400000
H        0.97640000       1.36270000      -1.02800000
H       -2.00000000       0.10600000       0.12930000
H       -2.61770000      -2.32370000       2.45080000
H        0.99610000      -3.74540000       0.74180000
H        2.07180000       0.16090000       0.53640000
