20
Properties=species:S:1:pos:R:3 gdb_53683=T pbc="F F F"
C        0.12020000       1.45580000       0.02940000
C        0.05770000       0.00140000       0.00020000
C        0.01600000      -1.20140000      -0.02440000
C       -0.07110000      -2.65660000      -0.05240000
C       -1.52170000      -3.14110000       0.00510000
O       -1.47640000      -4.57210000      -0.02860000
C       -2.65960000      -5.21940000       0.01280000
C       -2.43440000      -6.70960000      -0.03070000
N       -3.75560000      -4.58160000       0.07840000
H        0.68760000       1.81390000       0.89560000
H        0.60360000       1.85290000      -0.87020000
H       -0.88190000       1.89500000       0.08670000
H        0.39810000      -3.05090000      -0.96240000
H        0.48050000      -3.08960000       0.79140000
H       -2.02060000      -2.80650000       0.91930000
H       -2.10340000      -2.76760000      -0.84260000
H       -1.81400000      -7.02180000       0.81490000
H       -3.38170000      -7.24970000       0.00190000
H       -1.89670000      -6.98300000      -0.94370000
H       -4.54250000      -5.22590000       0.10110000
