14
Properties=species:S:1:pos:R:3 gdb_132665=T pbc="F F F"
O        0.03370000       1.37420000      -0.08100000
C        0.04790000       0.00940000      -0.03200000
C        0.00940000      -0.68500000      -1.24160000
C        0.02150000      -2.07550000      -1.25500000
C        0.07210000      -2.79830000      -0.06640000
O        0.08390000      -4.16150000      -0.08080000
C        0.10980000      -2.08190000       1.12680000
F        0.15870000      -2.79320000       2.27250000
C        0.09890000      -0.69850000       1.17050000
H        0.06370000       1.72460000       0.81470000
H       -0.03000000      -0.12170000      -2.16610000
H       -0.00830000      -2.62150000      -2.19090000
H        0.12050000      -4.46380000       0.83430000
H        0.13000000      -0.19920000       2.13330000
