15
Properties=species:S:1:pos:R:3 gdb_46655=T pbc="F F F"
O        0.01290000      -0.03210000      -0.09390000
C        0.00830000       1.17430000      -0.02450000
N       -1.09160000       1.98730000       0.07870000
C       -0.83910000       3.41600000       0.02630000
C        0.68570000       3.50220000       0.00170000
C        1.42620000       2.94680000       1.20330000
C        0.74310000       2.68990000       2.44200000
N        0.18940000       2.51980000       3.44320000
C        1.21150000       2.09460000      -0.04620000
H       -2.00640000       1.59170000       0.22290000
H       -1.25670000       3.86700000      -0.88280000
H       -1.26780000       3.93480000       0.89220000
H        1.14920000       4.31650000      -0.53990000
H        2.44040000       3.30970000       1.33440000
H        2.08380000       1.77900000      -0.60200000
