17
Properties=species:S:1:pos:R:3 gdb_76014=T pbc="F F F"
C       -0.09830000       1.56150000       0.01230000
C        0.02080000       0.05490000       0.06500000
C        1.33410000      -0.66800000      -0.23670000
C        2.53450000       0.08600000      -0.41380000
N        3.50410000       0.71370000      -0.50520000
C        0.69990000      -0.65940000       1.20460000
N        1.27100000       0.10240000       2.28010000
C        0.15660000      -1.92540000       1.62360000
C       -0.27910000      -2.99210000       1.96580000
H        0.83960000       2.06750000       0.25290000
H       -0.38460000       1.87850000      -0.99510000
H       -0.86500000       1.90910000       0.71090000
H       -0.84340000      -0.47160000      -0.32750000
H        1.28200000      -1.59470000      -0.79590000
H        1.97330000      -0.45140000       2.76110000
H        1.73340000       0.93820000       1.93890000
H       -0.67370000      -3.92860000       2.27460000
