20
Properties=species:S:1:pos:R:3 gdb_111550=T pbc="F F F"
C       -0.02760000       1.57660000      -0.21510000
C        0.04730000       0.08800000       0.14450000
C       -1.30570000      -0.60240000       0.06210000
N       -2.05920000      -0.64160000      -1.27320000
C       -1.12320000      -1.41620000      -2.19080000
C       -1.35130000      -2.63940000      -1.33060000
C       -2.62570000      -2.00880000      -0.82720000
C       -1.48440000      -2.11230000       0.12560000
O       -1.40980000      -2.95090000       1.21810000
H        0.95360000       2.05390000      -0.13540000
H       -0.39400000       1.71530000      -1.23650000
H       -0.71450000       2.10650000       0.45340000
H        0.78440000      -0.41740000      -0.48890000
H        0.41020000      -0.02670000       1.17470000
H       -1.99570000      -0.12880000       0.77110000
H       -1.59390000      -1.49370000      -3.17500000
H       -0.11890000      -0.99680000      -2.30680000
H       -1.15600000      -3.68950000      -1.51340000
H       -3.66850000      -2.28980000      -0.80570000
H       -0.50240000      -3.26330000       1.30370000
