23
Properties=species:S:1:pos:R:3 gdb_36963=T pbc="F F F"
C        0.15710000       1.46920000      -0.08330000
C        0.18330000      -0.05450000      -0.04850000
C       -1.16420000      -0.64950000       0.29750000
C       -2.20570000      -0.86330000      -0.77490000
C       -1.51950000      -2.04730000      -0.13880000
O        1.46030000       1.93260000      -0.39680000
C        1.54900000       3.31890000      -0.47250000
C        1.75050000       4.11710000       0.79190000
C        2.88780000       3.91720000      -0.19240000
H       -0.56600000       1.82210000      -0.83680000
H       -0.16680000       1.87400000       0.88920000
H        0.51460000      -0.42240000      -1.02720000
H        0.94060000      -0.37420000       0.67800000
H       -1.54900000      -0.35100000       1.27020000
H       -3.24680000      -0.67900000      -0.53420000
H       -1.93690000      -0.61400000      -1.79660000
H       -0.79250000      -2.59080000      -0.73360000
H       -2.09100000      -2.67090000       0.53970000
H        0.93800000       3.76510000      -1.25930000
H        1.29200000       5.09660000       0.87330000
H        1.80240000       3.55850000       1.71980000
H        3.67160000       3.22570000       0.09470000
H        3.21740000       4.75700000      -0.79340000
