21
Properties=species:S:1:pos:R:3 gdb_120575=T pbc="F F F"
C        0.09800000       1.57910000      -0.01780000
C        0.24370000       0.05530000      -0.03790000
C        0.46230000      -0.53970000       1.35990000
C        0.59440000      -2.04820000       1.33620000
C        1.91560000      -2.71300000       1.03080000
C        1.33320000      -2.78030000       2.43690000
O        1.90520000      -1.95500000       3.41890000
C        0.82150000      -4.03720000       2.92040000
C        0.42300000      -5.09180000       3.34080000
H        0.99350000       2.05660000       0.39550000
H       -0.05820000       1.97900000      -1.02460000
H       -0.75330000       1.88760000       0.59920000
H       -0.65150000      -0.39330000      -0.48850000
H        1.08300000      -0.22850000      -0.68570000
H        1.35630000      -0.10380000       1.81700000
H       -0.37800000      -0.26140000       2.00960000
H       -0.28340000      -2.57380000       0.96990000
H        1.93400000      -3.61730000       0.43360000
H        2.78150000      -2.06700000       0.92670000
H        2.65920000      -2.42600000       3.79090000
H        0.05740000      -6.01670000       3.71290000
