18
Properties=species:S:1:pos:R:3 gdb_26972=T pbc="F F F"
C        0.27670000       1.44780000       0.00770000
C        0.11520000      -0.03680000      -0.04260000
C        0.01940000      -0.90900000      -1.11120000
C        0.05800000      -0.55310000      -2.58030000
C        1.29460000       0.09820000      -3.01530000
C        2.30530000       0.64280000      -3.37280000
C       -0.15070000      -2.22050000      -0.57970000
C       -0.15530000      -2.11860000       0.78980000
N        0.00530000      -0.79180000       1.10130000
H        0.95160000       1.75120000       0.81680000
H        0.70590000       1.81170000      -0.92840000
H       -0.67700000       1.96880000       0.16540000
H       -0.08270000      -1.46950000      -3.16600000
H       -0.78890000       0.09550000      -2.84490000
H        3.20320000       1.11280000      -3.68870000
H       -0.25120000      -3.13180000      -1.15040000
H       -0.25160000      -2.86570000       1.56070000
H        0.05080000      -0.41870000       2.03370000
