16
Properties=species:S:1:pos:R:3 gdb_63257=T pbc="F F F"
C        0.03480000       1.51990000       0.01030000
C       -0.00560000       0.00140000      -0.01120000
C       -1.40460000      -0.59060000       0.00880000
O        0.68900000      -0.47150000      -1.17950000
C        1.76130000      -1.20430000      -0.81010000
N        2.55320000      -1.74440000      -1.62500000
C        1.79240000      -1.22640000       0.69950000
O        2.58530000      -1.76820000       1.40960000
O        0.73230000      -0.50270000       1.12170000
H        1.07060000       1.86690000      -0.00180000
H       -0.48090000       1.91480000      -0.86810000
H       -0.45600000       1.89470000       0.91150000
H       -1.96000000      -0.25390000      -0.86960000
H       -1.34950000      -1.68160000      -0.00420000
H       -1.93330000      -0.27150000       0.91000000
H        3.27440000      -2.23700000      -1.09470000
