21
Properties=species:S:1:pos:R:3 gdb_93955=T pbc="F F F"
C        0.43670000       1.38510000       0.05460000
C       -0.18610000       0.00460000      -0.14830000
C        0.50890000      -0.84200000      -1.22470000
O        1.50120000      -1.56400000      -0.50390000
C        1.18430000      -1.51080000       0.88390000
O       -0.04760000      -0.82650000       1.00280000
C        1.07160000      -2.88380000       1.49790000
C        0.52440000      -4.03550000       0.70120000
C        1.99380000      -3.98350000       1.04120000
H        1.52210000       1.31570000       0.17740000
H        0.23380000       2.02700000      -0.80920000
H        0.01690000       1.86150000       0.94460000
H       -1.25950000       0.10100000      -0.33870000
H       -0.19610000      -1.53340000      -1.70540000
H        0.99950000      -0.24130000      -1.99730000
H        1.98410000      -0.93870000       1.38550000
H        0.82780000      -2.84710000       2.55540000
H       -0.10440000      -4.75490000       1.21330000
H        0.24990000      -3.84420000      -0.32940000
H        2.67750000      -3.75130000       0.23290000
H        2.38270000      -4.66850000       1.78630000
