14
Properties=species:S:1:pos:R:3 gdb_55620=T pbc="F F F"
N       -0.31780000       0.42430000       1.95030000
C       -0.07950000      -0.21920000       0.80830000
N        1.14880000      -0.71860000       0.55210000
H        1.78170000      -0.88710000       1.31570000
H        1.27610000      -1.29630000      -0.26310000
N       -1.06450000      -0.35130000      -0.07130000
C       -2.35730000       0.24830000       0.13880000
C       -3.35630000      -0.59050000       0.66140000
N       -4.14730000      -1.30710000       1.12960000
C       -2.62230000       1.42500000      -0.58180000
N       -2.78950000       2.41850000      -1.16750000
H        0.43340000       0.77970000       2.51580000
H       -1.24630000       0.84410000       1.99060000
H       -0.87460000      -0.91610000      -0.89360000
