20
Properties=species:S:1:pos:R:3 gdb_58048=T pbc="F F F"
C        0.09470000       1.45410000       0.20480000
C        0.07390000      -0.06470000      -0.00680000
C       -1.35470000      -0.61090000       0.11830000
C        0.70990000      -0.44960000      -1.37890000
C        2.07360000       0.07920000      -1.48420000
N        3.14850000       0.49530000      -1.57010000
C        0.68280000      -1.95670000      -1.62900000
C        1.82440000      -2.73750000      -2.11930000
O        1.44240000      -2.76420000      -0.73790000
H        1.10760000       1.86030000       0.14150000
H       -0.52210000       1.96370000      -0.54540000
H       -0.30870000       1.70500000       1.19030000
H        0.69480000      -0.53770000       0.76260000
H       -1.99540000      -0.23920000      -0.69080000
H       -1.38670000      -1.70310000       0.10720000
H       -1.79640000      -0.28060000       1.06320000
H        0.11860000       0.02430000      -2.17580000
H       -0.31620000      -2.33720000      -1.84020000
H        1.63870000      -3.65830000      -2.66980000
H        2.76890000      -2.24130000      -2.32800000
