19
Properties=species:S:1:pos:R:3 gdb_85062=T pbc="F F F"
C       -0.39290000       1.48710000      -0.11120000
C        0.00410000       0.03350000       0.06160000
O        0.64980000      -0.42010000      -1.14710000
C        1.64200000      -1.30720000      -0.86160000
O        2.31870000      -1.81200000      -1.70900000
C        1.69310000      -1.53310000       0.65070000
C        3.08430000      -1.87860000       1.17010000
C        1.01960000      -0.26710000       1.19120000
O        2.01200000       0.73480000       1.31780000
H        0.49170000       2.10430000      -0.28570000
H       -1.06410000       1.59880000      -0.96590000
H       -0.91650000       1.84870000       0.78080000
H       -0.88980000      -0.58670000       0.21850000
H        1.00900000      -2.37260000       0.84180000
H        3.75580000      -1.02450000       1.07210000
H        3.04830000      -2.16950000       2.22380000
H        3.49250000      -2.70910000       0.58940000
H        0.50330000      -0.43490000       2.14590000
H        1.60790000       1.52320000       1.69230000
