18
Properties=species:S:1:pos:R:3 gdb_119220=T pbc="F F F"
C        0.17090000       1.34580000      -0.21130000
O        0.29660000      -0.05630000      -0.12580000
C        0.46460000      -0.51410000       1.19060000
C        0.48740000      -2.02690000       1.15480000
O        1.73290000      -2.66170000       0.84830000
C        1.19870000      -2.86010000       2.15700000
C        1.96890000      -2.32290000       3.33560000
C       -0.67210000      -2.62090000       0.50250000
N       -1.60820000      -3.09990000       0.02390000
H        1.07150000       1.85830000       0.16060000
H        0.03220000       1.59200000      -1.26580000
H       -0.69700000       1.71040000       0.35940000
H        1.40390000      -0.14370000       1.62430000
H       -0.36590000      -0.17880000       1.83590000
H        0.78320000      -3.85800000       2.30540000
H        2.39400000      -1.33780000       3.13930000
H        1.32060000      -2.26280000       4.21570000
H        2.79120000      -3.00540000       3.57270000
