17
Properties=species:S:1:pos:R:3 gdb_82466=T pbc="F F F"
C       -0.07150000       1.48940000       0.07320000
C       -0.01040000      -0.00450000       0.06900000
O       -1.25520000      -0.71380000       0.17770000
C       -0.44190000      -1.88890000       0.46210000
C        0.71510000      -0.96120000       1.03030000
O        1.86840000      -1.07990000       0.17830000
C        0.93500000      -0.82360000      -0.92240000
C        0.16630000      -2.16680000      -0.93730000
O        0.99600000      -3.28800000      -1.05360000
H        0.94050000       1.90450000       0.08580000
H       -0.58440000       1.85620000      -0.82180000
H       -0.61310000       1.85000000       0.95220000
H       -0.95000000      -2.67860000       1.01030000
H        0.91460000      -0.84830000       2.09410000
H        1.41010000      -0.43480000      -1.82100000
H       -0.62090000      -2.22590000      -1.69030000
H        1.79530000      -3.06960000      -0.55300000
