21
Properties=species:S:1:pos:R:3 gdb_39626=T pbc="F F F"
C       -0.03380000       1.45110000      -0.13330000
C        1.51790000       1.46950000      -0.10020000
C        1.48130000       0.08300000       0.60950000
C        0.01040000      -0.07930000       0.12240000
C        2.47560000      -0.94550000       0.18730000
C        4.03120000      -0.91960000       0.23790000
C        3.57190000      -2.12690000      -0.60710000
C        2.51510000      -2.47730000       0.46200000
O        2.57830000      -1.25580000      -1.27390000
H       -0.46360000       1.99130000       0.71540000
H       -0.52270000       1.79560000      -1.04710000
H        1.94760000       1.37300000      -1.10050000
H        2.01060000       2.29280000       0.42200000
H        1.52870000       0.19330000       1.69860000
H       -0.71150000      -0.50380000       0.82390000
H       -0.02050000      -0.64890000      -0.81000000
H        4.50030000      -0.11100000      -0.32410000
H        4.51620000      -1.11310000       1.19850000
H        4.15810000      -2.78900000      -1.24400000
H        2.86130000      -2.81340000       1.44310000
H        1.65280000      -3.03660000       0.09680000
