23
Properties=species:S:1:pos:R:3 gdb_96343=T pbc="F F F"
C       -0.01690000       1.55270000      -0.00330000
C        0.01890000       0.02450000      -0.01250000
O       -1.31560000      -0.49890000       0.06540000
C        0.72800000      -0.51850000      -1.27030000
C        0.79410000      -2.05220000      -1.28310000
C        1.47000000      -2.58930000      -0.01370000
C        0.78090000      -2.05230000       1.25130000
C        0.71250000      -0.51930000       1.26410000
O        1.99590000       0.07500000       1.44560000
H        0.99090000       1.96590000       0.07050000
H       -0.48320000       1.93500000      -0.91980000
H       -0.59920000       1.90860000       0.85220000
H       -1.82740000      -0.10270000      -0.64760000
H        0.20830000      -0.14720000      -2.16330000
H        1.74120000      -0.09560000      -1.31430000
H       -0.22630000      -2.44730000      -1.33990000
H        1.32430000      -2.39870000      -2.17700000
H        1.45990000      -3.68440000      -0.00650000
H        2.53440000      -2.30710000      -0.01890000
H       -0.24130000      -2.44020000       1.29770000
H        1.30360000      -2.38880000       2.15330000
H        0.12020000      -0.18770000       2.12340000
H        2.62210000      -0.37870000       0.87310000
