18
Properties=species:S:1:pos:R:3 gdb_67948=T pbc="F F F"
C        0.01010000       1.56680000      -0.03110000
C       -0.00150000       0.04780000       0.02970000
N       -1.26870000      -0.52390000       0.56400000
C       -0.65540000      -1.32690000       1.50080000
O       -1.06770000      -2.19150000       2.22720000
C        0.73110000      -0.70670000       1.19700000
C        1.75930000      -1.66150000       0.56300000
C        1.45440000      -1.56520000      -0.91560000
C        0.52760000      -0.65180000      -1.20290000
H        1.01610000       1.93590000      -0.25380000
H       -0.65890000       1.93260000      -0.81860000
H       -0.32130000       1.99520000       0.91910000
H       -2.15870000      -0.66600000       0.10440000
H        1.12100000      -0.08560000       2.00410000
H        2.79000000      -1.35380000       0.77870000
H        1.65580000      -2.68410000       0.94460000
H        1.95300000      -2.19340000      -1.64650000
H        0.16820000      -0.41430000      -2.19900000
