19
Properties=species:S:1:pos:R:3 gdb_126368=T pbc="F F F"
C        0.62350000       0.45540000      -0.72350000
C       -0.32800000       0.49890000       0.48520000
C        0.31660000       0.02310000       1.74210000
N        0.05210000      -1.04190000       2.43780000
C        0.96970000      -0.96060000       3.46720000
C        1.06980000      -1.98140000       4.55300000
C        1.42040000      -3.37700000       4.01390000
N        1.75200000       0.08480000       3.40970000
O        1.31860000       0.75260000       2.25230000
H        0.96370000      -0.56600000      -0.91620000
H        0.11200000       0.81980000      -1.61830000
H        1.50290000       1.08130000      -0.55150000
H       -0.68110000       1.52490000       0.63920000
H       -1.20350000      -0.13110000       0.31340000
H        1.81800000      -1.64310000       5.27490000
H        0.10590000      -2.02260000       5.07350000
H        0.68020000      -3.70390000       3.27900000
H        2.40210000      -3.37450000       3.53050000
H        1.44400000      -4.10580000       4.82870000
