21
Properties=species:S:1:pos:R:3 gdb_102543=T pbc="F F F"
C        0.19470000       1.26920000      -0.91310000
C        0.00920000      -0.00990000      -0.12770000
C        1.18380000      -0.83950000       0.16720000
O        0.63250000       0.00770000       1.18520000
C       -1.37870000      -0.65700000      -0.12290000
C       -2.30960000       0.03040000       0.89660000
O       -1.96610000      -0.27330000       2.23030000
C       -2.01040000      -0.67880000      -1.51370000
O       -1.09130000      -1.28140000      -2.41610000
H        1.18160000       1.69090000      -0.70930000
H        0.11110000       1.06420000      -1.98380000
H       -0.55520000       2.01990000      -0.64250000
H        1.06160000      -1.90860000       0.32980000
H        2.16480000      -0.53450000      -0.19370000
H       -1.26690000      -1.69450000       0.21210000
H       -2.31960000       1.11980000       0.71780000
H       -3.33750000      -0.32260000       0.74860000
H       -1.00650000      -0.17300000       2.29550000
H       -2.95120000      -1.24730000      -1.46650000
H       -2.26250000       0.34530000      -1.83150000
H       -1.49460000      -1.30080000      -3.28900000
