15
Properties=species:S:1:pos:R:3 gdb_78729=T pbc="F F F"
O        0.01140000       1.33890000       0.07680000
C        0.01450000      -0.06830000      -0.01880000
C       -1.41720000      -0.57160000      -0.13350000
C       -1.38250000      -0.47170000      -1.65070000
C        0.17340000      -0.59690000      -1.47830000
O        0.08660000      -2.03700000      -1.32210000
C       -1.30740000      -1.83410000      -1.02690000
C       -2.21640000      -2.92160000      -0.99870000
C       -2.99300000      -3.83970000      -0.97390000
H        0.92560000       1.63850000       0.03640000
H        0.67110000      -0.53620000       0.72700000
H       -2.24780000      -0.41460000       0.54110000
H       -2.04750000      -0.03970000      -2.38390000
H        0.96320000      -0.26440000      -2.14920000
H       -3.67610000      -4.65250000      -0.95370000
