20
Properties=species:S:1:pos:R:3 gdb_101266=T pbc="F F F"
C        0.27490000       1.72790000       1.28940000
C        0.01160000       0.65200000       0.23570000
C        0.82510000      -0.62330000       0.50000000
O        0.49640000      -1.20890000       1.74530000
N       -1.40680000       0.26090000       0.29050000
C       -2.39130000       1.14720000      -0.29680000
C       -2.08660000      -0.16930000      -0.95010000
C       -1.41040000      -0.20430000      -2.21830000
C       -0.85570000      -0.27650000      -3.28360000
H        1.31740000       2.05610000       1.23740000
H       -0.36340000       2.60260000       1.13320000
H        0.08980000       1.33150000       2.29040000
H        0.28120000       1.03520000      -0.76070000
H        0.66390000      -1.32800000      -0.33100000
H        1.89330000      -0.38340000       0.52870000
H       -0.46930000      -1.21250000       1.77870000
H       -3.32060000       1.27280000       0.25260000
H       -2.03630000       2.03530000      -0.81640000
H       -2.78350000      -0.98920000      -0.79270000
H       -0.36930000      -0.33160000      -4.22610000
