23
Properties=species:S:1:pos:R:3 gdb_101329=T pbc="F F F"
C       -0.00510000       1.55110000      -0.14340000
C        0.11440000       0.02820000      -0.05980000
C        0.64970000      -0.46450000       1.29210000
O       -0.17230000      -0.01500000       2.37480000
C        0.82310000      -1.97100000       1.30520000
C        2.17210000      -2.60670000       1.05710000
C        1.54020000      -2.69220000       2.42240000
C        2.12680000      -1.96390000       3.60350000
O        3.14110000      -2.79350000       4.16050000
H        0.97760000       2.02820000      -0.05770000
H       -0.44510000       1.86350000      -1.09520000
H       -0.62950000       1.93130000       0.66910000
H       -0.86830000      -0.43500000      -0.23290000
H        0.77200000      -0.34930000      -0.85270000
H        1.61730000       0.01660000       1.47800000
H       -1.01090000      -0.48630000       2.31550000
H       -0.03230000      -2.50300000       0.89030000
H        2.22740000      -3.50090000       0.44650000
H        3.02220000      -1.94020000       0.94490000
H        1.12860000      -3.66100000       2.69300000
H        2.53920000      -0.99290000       3.29220000
H        1.33590000      -1.75440000       4.33910000
H        3.45650000      -2.37250000       4.96570000
