20
Properties=species:S:1:pos:R:3 gdb_8156=T pbc="F F F"
C        0.13570000       1.52130000       0.06570000
C        0.07010000       0.00880000      -0.05140000
C        0.82510000      -0.60460000      -1.25390000
C        1.33450000      -1.93130000      -0.69890000
C        2.54300000      -1.87870000       0.22280000
C        1.14880000      -1.86310000       0.79330000
C        0.60220000      -2.96210000       1.66250000
O        0.67060000      -0.57330000       1.11590000
H        1.17710000       1.85500000       0.11220000
H       -0.34430000       1.99280000      -0.79780000
H       -0.37510000       1.86160000       0.97080000
H       -0.98510000      -0.30870000      -0.09660000
H        0.16180000      -0.74600000      -2.11190000
H        1.64500000       0.04860000      -1.57570000
H        1.14230000      -2.84660000      -1.24700000
H        3.13120000      -2.78530000       0.32740000
H        3.11090000      -0.95520000       0.27000000
H        1.00510000      -3.93320000       1.35990000
H        0.87110000      -2.79570000       2.71110000
H       -0.49030000      -3.00580000       1.59700000
