19
Properties=species:S:1:pos:R:3 gdb_110943=T pbc="F F F"
C        0.13570000       1.01140000      -0.47560000
O       -0.19370000       0.11360000       0.57130000
C       -1.34110000      -0.62070000       0.30830000
C       -1.40950000      -1.70930000      -0.71640000
O       -0.16000000      -2.37920000      -0.86350000
C       -0.24100000      -2.86420000       0.51560000
C        1.05370000      -2.65570000       1.27840000
O        2.10070000      -3.39480000       0.66800000
C       -1.50110000      -2.03760000       0.78050000
H        1.03190000       1.55100000      -0.16190000
H        0.34230000       0.47340000      -1.40970000
H       -0.67200000       1.73650000      -0.65400000
H       -2.27040000      -0.04800000       0.37850000
H       -2.12010000      -1.78060000      -1.53290000
H       -0.47510000      -3.93570000       0.48190000
H        1.28420000      -1.58740000       1.34020000
H        0.94210000      -3.04730000       2.29600000
H        2.17090000      -3.06790000      -0.23610000
H       -2.33370000      -2.36030000       1.39110000
