18
Properties=species:S:1:pos:R:3 gdb_71489=T pbc="F F F"
C        0.00170000       1.48490000      -0.08060000
C       -0.00810000      -0.01180000      -0.00790000
N        0.59310000      -0.89760000      -1.07950000
C        0.03940000      -1.85240000      -0.05430000
C        0.60570000      -0.95990000       1.09230000
C       -0.37680000      -1.01190000       2.24710000
C       -1.57860000      -1.01710000       1.66390000
C       -1.24930000      -0.96880000       0.17930000
O       -2.24760000      -0.87990000      -0.78670000
H        1.02240000       1.85700000      -0.21060000
H       -0.60220000       1.83430000      -0.92470000
H       -0.41520000       1.91130000       0.83770000
H       -0.03810000      -0.89130000      -1.88710000
H        0.11520000      -2.93910000      -0.15800000
H        1.68090000      -0.93950000       1.25500000
H       -0.12470000      -1.02750000       3.29810000
H       -2.56750000      -1.02910000       2.10180000
H       -2.79100000      -1.67380000      -0.74480000
