19
Properties=species:S:1:pos:R:3 gdb_106335=T pbc="F F F"
C       -0.04930000       1.52570000      -0.00350000
C       -0.08260000      -0.00520000       0.06280000
C       -1.47250000      -0.57020000      -0.01990000
C       -2.55730000      -0.34770000      -1.11740000
C       -3.20140000      -1.18060000       0.02200000
C       -1.92150000      -2.06210000       0.05190000
N       -2.56680000      -0.19640000       0.99220000
C       -4.57430000      -1.60950000       0.14460000
N       -5.66790000      -1.97280000       0.23670000
H        0.97330000       1.89690000       0.10660000
H       -0.43650000       1.88800000      -0.96110000
H       -0.66250000       1.96230000       0.78960000
H        0.51340000      -0.43590000      -0.75190000
H        0.37990000      -0.35230000       0.99620000
H       -2.93860000       0.66820000      -1.21290000
H       -2.41480000      -0.85280000      -2.07320000
H       -1.72760000      -2.70570000      -0.81140000
H       -1.72960000      -2.57850000       0.99680000
H       -2.38300000      -0.68440000       1.87630000
