20
Properties=species:S:1:pos:R:3 gdb_15987=T pbc="F F F"
C        0.22450000       1.54110000       0.11540000
C       -0.01740000       0.03140000       0.02160000
C        0.49240000      -0.55030000      -1.28620000
O        1.93150000      -0.40290000      -1.43350000
C        2.12010000      -1.82250000      -1.61590000
C        0.62920000      -2.06920000      -1.42190000
C       -0.04200000      -3.15030000      -0.63210000
C       -0.26300000      -3.04110000      -2.12540000
H        1.29070000       1.76100000       0.01230000
H       -0.30750000       2.07820000      -0.67780000
H       -0.11690000       1.93820000       1.07590000
H        0.47830000      -0.48410000       0.85250000
H       -1.09090000      -0.18670000       0.10480000
H       -0.02440000      -0.07690000      -2.13580000
H        2.51530000      -2.05850000      -2.61350000
H        2.78840000      -2.25010000      -0.85670000
H        0.57200000      -3.96590000      -0.26260000
H       -0.85890000      -2.87580000       0.02740000
H       -1.22900000      -2.68820000      -2.47380000
H        0.19690000      -3.78460000      -2.76920000
