20
Properties=species:S:1:pos:R:3 gdb_88840=T pbc="F F F"
C        3.01510000      -0.70590000       0.44550000
N        1.62130000      -1.12850000       0.43140000
C        1.21940000      -2.20470000       1.32120000
C        0.74130000      -0.80930000       1.55870000
C        1.22030000      -0.04600000       2.75950000
O        1.21270000       1.39210000       2.55000000
C        0.30630000       1.60770000       3.64830000
C        0.23490000       0.09350000       3.94900000
O       -0.99630000      -0.54770000       3.71660000
H        3.54500000      -0.89290000       1.39260000
H        3.54790000      -1.24690000      -0.34320000
H        3.06910000       0.36480000       0.22780000
H        0.54700000      -2.95310000       0.91050000
H        1.96440000      -2.59740000       2.01460000
H       -0.26910000      -0.55120000       1.25470000
H        2.21720000      -0.37990000       3.06930000
H        0.74770000       2.23660000       4.43200000
H       -0.64810000       2.04010000       3.32260000
H        0.66130000      -0.20000000       4.91620000
H       -1.57270000      -0.38290000       4.46910000
