18
Properties=species:S:1:pos:R:3 gdb_51804=T pbc="F F F"
O        0.05790000      -0.34660000       0.22150000
C       -0.06780000       0.85950000       0.22520000
N        0.93770000       1.75340000       0.02310000
C        2.32170000       1.36170000      -0.17570000
C        2.79110000       1.49510000      -1.65300000
O        4.17780000       1.80760000      -1.62170000
C        4.45740000       2.42820000      -0.39270000
C        3.61680000       3.60240000       0.03230000
C        3.33660000       2.20480000       0.57710000
H       -1.03780000       1.36670000       0.39830000
H        0.72330000       2.73740000       0.07360000
H        2.38820000       0.32130000       0.14960000
H        2.65880000       0.57450000      -2.22650000
H        2.21720000       2.29070000      -2.15030000
H        5.50730000       2.36660000      -0.13410000
H        4.06350000       4.31290000       0.71890000
H        2.93920000       4.04810000      -0.68890000
H        3.50660000       1.99860000       1.62670000
