17
Properties=species:S:1:pos:R:3 gdb_101427=T pbc="F F F"
O       -0.15280000       1.23150000       0.33730000
C       -0.64450000      -0.07390000       0.62600000
C       -1.46230000      -0.60090000      -0.55740000
O       -0.72720000      -0.45160000      -1.75420000
C       -1.85330000      -2.06620000      -0.41120000
O       -0.83130000      -2.94470000       0.12790000
C       -1.66400000      -3.42520000       1.20400000
C       -2.76760000      -2.45810000       0.75990000
O       -3.83900000      -2.12040000       1.16010000
H       -0.89230000       1.84770000       0.38040000
H        0.23510000      -0.70700000       0.76140000
H       -1.23570000      -0.08980000       1.55260000
H       -2.41490000      -0.03920000      -0.61360000
H       -0.21270000       0.35960000      -1.64180000
H       -2.21550000      -2.42660000      -1.38400000
H       -1.91650000      -4.48910000       1.10850000
H       -1.23600000      -3.23960000       2.19680000
