19
Properties=species:S:1:pos:R:3 gdb_102849=T pbc="F F F"
C       -0.11050000       1.49830000      -0.10050000
O       -0.07500000       0.08120000      -0.10790000
C        0.62540000      -0.53140000       0.95890000
C       -0.03250000      -1.90450000       1.16840000
C       -1.48000000      -1.79700000       1.60030000
O       -1.96670000      -2.43800000       2.49690000
C        2.13440000      -0.70440000       0.64860000
C        2.92280000       0.52030000       0.70860000
C        3.59030000       1.51740000       0.78550000
H        0.87510000       1.93800000      -0.28460000
H       -0.79370000       1.79610000      -0.89970000
H       -0.49440000       1.88350000       0.85570000
H        0.52120000       0.07290000       1.87350000
H       -0.00890000      -2.43370000       0.20510000
H        0.50640000      -2.50490000       1.90570000
H       -2.08090000      -1.06970000       1.01460000
H        2.55430000      -1.42660000       1.36010000
H        2.21620000      -1.15830000      -0.34670000
H        4.17830000       2.39960000       0.84690000
