17
Properties=species:S:1:pos:R:3 gdb_47456=T pbc="F F F"
N       -0.04440000       1.30550000       0.24720000
C       -0.00530000       0.07460000      -0.04510000
O        1.12040000      -0.65950000      -0.29130000
C        0.74420000      -1.99050000      -0.67570000
C       -0.69720000      -2.13890000      -0.17540000
N       -1.11350000      -0.74710000      -0.18160000
C       -2.39060000      -0.32730000       0.37110000
C       -2.61440000      -0.77260000       1.75040000
C       -2.78880000      -1.16750000       2.87210000
H        0.89000000       1.70540000       0.23760000
H        0.80540000      -2.07710000      -1.76660000
H        1.44230000      -2.69370000      -0.21810000
H       -1.31190000      -2.74840000      -0.84510000
H       -0.74420000      -2.57450000       0.83310000
H       -2.40130000       0.76550000       0.32290000
H       -3.19880000      -0.70110000      -0.26960000
H       -2.94680000      -1.49280000       3.87060000
