22
Properties=species:S:1:pos:R:3 gdb_40626=T pbc="F F F"
C        1.32290000       0.10860000      -0.33340000
C        0.74800000      -1.14310000      -0.89960000
N       -0.06640000      -0.25470000      -0.07800000
C       -0.36970000      -0.72080000       1.26030000
C       -0.99390000       0.37020000       2.18420000
C       -2.33280000       0.10140000       1.43480000
C       -1.78680000      -1.35720000       1.40290000
C       -1.79510000      -1.73900000       2.89470000
C       -1.18970000      -0.42020000       3.49120000
H        2.03540000       0.00150000       0.48350000
H        1.47790000       0.98130000      -0.96150000
H        0.47490000      -1.20270000      -1.94930000
H        1.07790000      -2.08330000      -0.45950000
H        0.46640000      -1.30040000       1.69310000
H       -0.55770000       1.36730000       2.25370000
H       -3.26580000       0.28470000       1.97630000
H       -2.35570000       0.55840000       0.44760000
H       -2.14770000      -2.09660000       0.68700000
H       -2.80440000      -1.94420000       3.26250000
H       -1.17660000      -2.61670000       3.10640000
H       -0.24820000      -0.59410000       4.02120000
H       -1.87330000       0.08410000       4.17990000
