20
Properties=species:S:1:pos:R:3 gdb_54421=T pbc="F F F"
C        0.23480000       1.52640000       0.06480000
C        0.08860000       0.03430000       0.00040000
C       -0.90800000      -0.72220000       0.81090000
C        0.55850000      -1.02540000       1.04010000
C        1.08570000      -1.92270000      -0.08690000
C        0.60890000      -0.86350000      -1.13400000
C        1.16430000      -0.71870000       2.35960000
N        2.25490000      -1.47790000       2.69850000
O        0.75290000       0.17920000       3.07830000
H        1.22440000       1.84360000      -0.28290000
H       -0.51420000       2.02310000      -0.56390000
H        0.10990000       1.87440000       1.09360000
H       -1.36440000      -0.16740000       1.62310000
H       -1.53560000      -1.48670000       0.35670000
H        2.17390000      -2.02700000      -0.08640000
H        0.63780000      -2.92020000      -0.15560000
H       -0.14080000      -1.19520000      -1.86000000
H        1.44470000      -0.41640000      -1.67730000
H        2.45230000      -2.34110000       2.22190000
H        2.60840000      -1.36820000       3.63570000
