17
Properties=species:S:1:pos:R:3 gdb_55788=T pbc="F F F"
N       -0.21900000       1.41350000       0.07910000
C        0.09000000       0.05950000       0.03100000
O        1.22790000      -0.36050000       0.01650000
N       -1.03210000      -0.75540000       0.04710000
C       -1.01090000      -2.14710000       0.05100000
C       -0.00190000      -3.01680000      -0.00030000
C       -0.56190000      -4.40910000       0.01000000
O       -1.98420000      -4.25690000       0.09270000
C       -2.32630000      -2.88620000       0.09940000
H        0.58210000       1.99390000      -0.11880000
H       -1.06830000       1.72590000      -0.36760000
H       -1.92350000      -0.31820000       0.21850000
H        1.04770000      -2.77820000      -0.04220000
H       -0.30880000      -4.97750000      -0.89930000
H       -0.21210000      -5.00350000       0.86860000
H       -2.90510000      -2.64130000       1.00720000
H       -2.96630000      -2.64270000      -0.76680000
