21
Properties=species:S:1:pos:R:3 gdb_62512=T pbc="F F F"
C        1.56130000       0.98890000      -1.03160000
C        0.87450000      -0.25600000      -0.49300000
C       -0.27500000      -0.71460000      -1.37500000
C        1.71870000      -1.39160000       0.13610000
C        3.18710000      -1.35120000       0.25700000
O        3.89270000      -2.33400000       0.22220000
C        0.77900000      -0.49570000       0.97930000
C        1.32420000       0.45920000       2.02010000
O       -0.41040000      -1.11150000       1.39150000
H        2.38450000       1.34550000      -0.41130000
H        1.96250000       0.79610000      -2.03240000
H        0.83560000       1.80530000      -1.11870000
H        0.09270000      -0.96100000      -2.37680000
H       -0.78030000      -1.58650000      -0.96050000
H       -1.01710000       0.08540000      -1.47830000
H        1.33550000      -2.39340000      -0.03180000
H        3.63900000      -0.34370000       0.39210000
H        2.24600000       0.95410000       1.71160000
H        0.57600000       1.22620000       2.24360000
H        1.54110000      -0.08090000       2.94960000
H       -0.22020000      -1.62320000       2.18590000
