16
Properties=species:S:1:pos:R:3 gdb_83410=T pbc="F F F"
N        0.07680000       0.87960000       0.87820000
C       -0.02830000       0.03540000      -0.18080000
O        0.80490000      -0.09110000      -1.05920000
C       -1.28890000      -0.75750000      -0.18680000
O       -2.25250000      -0.61250000       0.87340000
C       -2.43840000      -2.06470000       0.91860000
C       -1.53780000      -2.26890000      -0.29180000
C       -1.97560000      -1.32640000      -1.38890000
O       -3.30650000      -1.03240000      -1.65560000
H        0.89990000       1.45110000       0.96850000
H       -0.63780000       0.89810000       1.58600000
H       -2.03300000      -2.46600000       1.85160000
H       -3.49160000      -2.34200000       0.81010000
H       -0.82100000      -3.06590000      -0.43360000
H       -1.35590000      -1.36040000      -2.27880000
H       -3.62710000      -0.49930000      -0.91580000
