13
Properties=species:S:1:pos:R:3 gdb_132693=T pbc="F F F"
O        0.10290000       1.34050000       0.20590000
C        0.06600000      -0.02200000       0.05640000
C       -0.04260000      -0.69950000      -1.14230000
N       -0.07420000      -2.03860000      -1.23300000
C        0.00390000      -2.70420000      -0.10710000
F       -0.02800000      -4.03300000      -0.20280000
C        0.11620000      -2.14900000       1.16580000
C        0.14800000      -0.76630000       1.24840000
O        0.25490000      -0.14690000       2.44060000
H        0.04230000       1.76810000      -0.65400000
H       -0.10750000      -0.14690000      -2.07860000
H        0.17600000      -2.76580000       2.05250000
H        0.25950000       0.80640000       2.27960000
