19
Properties=species:S:1:pos:R:3 gdb_73132=T pbc="F F F"
C        0.32090000       1.55870000      -0.05600000
C        0.00970000       0.08190000       0.06790000
O       -1.35090000      -0.16150000       0.50090000
C       -0.90880000      -1.08260000       1.52370000
C        0.57670000      -0.75360000       1.25640000
C        1.53050000      -1.82870000       0.70220000
C        1.28460000      -1.83060000      -0.79720000
O       -0.08300000      -2.06940000      -1.13890000
C        0.39010000      -0.72010000      -1.17450000
H        1.36790000       1.71510000      -0.33900000
H       -0.31230000       2.01790000      -0.82280000
H        0.13440000       2.07110000       0.89130000
H       -1.29280000      -0.79810000       2.51030000
H       -1.20050000      -2.11320000       1.29680000
H        1.03290000      -0.16240000       2.05210000
H        2.57550000      -1.56620000       0.90320000
H        1.35510000      -2.81800000       1.13920000
H        2.01720000      -2.25450000      -1.48090000
H        0.39840000      -0.25420000      -2.15770000
