20
Properties=species:S:1:pos:R:3 gdb_85247=T pbc="F F F"
C        0.06700000       1.51090000       0.00410000
N        0.05440000       0.06030000       0.04290000
C        0.52420000      -0.59420000      -1.17500000
C        1.09410000      -1.94030000      -0.70910000
O        1.22380000      -2.92590000      -1.39120000
C        1.37920000      -1.83320000       0.75780000
C        1.41980000      -3.09920000       1.57440000
C        2.25100000      -0.62290000       1.12170000
C        0.75050000      -0.52520000       1.17050000
H        1.07680000       1.93720000      -0.14270000
H       -0.57170000       1.86340000      -0.81190000
H       -0.33560000       1.90720000       0.94160000
H       -0.28090000      -0.74940000      -1.90010000
H        1.32360000      -0.03270000      -1.69340000
H        2.21180000      -3.76060000       1.21040000
H        1.61020000      -2.88320000       2.62960000
H        0.47430000      -3.64560000       1.50140000
H        2.79050000      -0.71340000       2.05870000
H        2.79610000      -0.10570000       0.33930000
H        0.25090000      -0.42080000       2.12900000
