17
Properties=species:S:1:pos:R:3 gdb_35514=T pbc="F F F"
C       -0.11030000      -1.23100000      -0.16210000
C       -0.04660000      -0.03610000      -0.05620000
C        0.00910000       1.41580000       0.03380000
O       -0.56780000       1.89730000       1.27810000
C        0.46810000       2.65830000       1.91970000
C        1.56710000       1.68010000       2.35380000
O        2.17770000       1.30880000       1.09660000
C        1.44480000       2.00520000       0.09070000
C        1.15480000       3.36480000       0.74170000
H       -0.15740000      -2.28860000      -0.24600000
H       -0.55520000       1.85310000      -0.80210000
H        0.02100000       3.26090000       2.70920000
H        2.31980000       2.13610000       3.00920000
H        1.14380000       0.79550000       2.83920000
H        1.99620000       1.96800000      -0.84730000
H        0.47350000       4.00570000       0.17970000
H        2.06850000       3.90160000       1.00300000
