22
Properties=species:S:1:pos:R:3 gdb_76910=T pbc="F F F"
C       -0.09850000       1.51470000       0.07070000
C       -0.00390000       0.00470000       0.00260000
C       -1.22170000      -0.68290000      -0.58500000
C        1.34470000      -0.63800000      -0.27020000
O        2.49540000       0.13800000      -0.38790000
C        0.72050000      -0.76540000       1.10380000
N        1.41720000      -0.03000000       2.12640000
C        0.74550000       0.15650000       3.41070000
C        1.89070000      -0.78600000       3.28420000
H        0.82810000       1.96540000       0.42680000
H       -0.30770000       1.92330000      -0.92450000
H       -0.91060000       1.83040000       0.73600000
H       -1.42050000      -0.32150000      -1.60070000
H       -1.08610000      -1.76830000      -0.64110000
H       -2.11710000      -0.49180000       0.01910000
H        1.37300000      -1.50980000      -0.91920000
H        2.67500000       0.47190000       0.50420000
H        0.28950000      -1.72240000       1.40810000
H        0.87990000       1.12770000       3.87800000
H       -0.24690000      -0.27390000       3.52450000
H        1.67090000      -1.85130000       3.31270000
H        2.87260000      -0.51280000       3.65900000
