18
Properties=species:S:1:pos:R:3 gdb_78164=T pbc="F F F"
C        0.81490000       2.04380000       0.37660000
C        0.62770000       0.54620000       0.30190000
C        0.76340000      -0.31220000      -0.90250000
C        1.48130000       0.15880000      -2.16040000
C        0.80790000       1.22650000      -3.00920000
O        2.75640000       0.61690000      -1.67390000
C        2.93910000       0.26250000      -0.36420000
O        3.94620000       0.48940000       0.23100000
N        1.78320000      -0.39940000       0.16110000
H        1.53610000       2.42550000      -0.34720000
H       -0.14410000       2.54250000       0.20240000
H        1.16020000       2.32400000       1.37660000
H       -0.06990000       0.16820000       1.04670000
H        0.11170000      -1.17440000      -1.00920000
H        1.67410000      -0.72270000      -2.78630000
H        0.58420000       2.12500000      -2.43150000
H        1.45150000       1.50230000      -3.84860000
H       -0.13000000       0.83320000      -3.41410000
