14
Properties=species:S:1:pos:R:3 gdb_3147=T pbc="F F F"
O        0.04180000       0.05710000      -0.27780000
C        0.00620000       1.23380000      -0.06390000
C       -1.08010000       2.25740000       0.32600000
N       -0.01420000       3.30980000       0.40370000
C        1.01080000       2.34880000      -0.05060000
C        2.43930000       2.27600000       0.42480000
C        2.14380000       2.57920000      -1.01840000
H       -1.83740000       2.40680000      -0.45220000
H       -1.58180000       2.07010000       1.28050000
H       -0.17110000       4.04580000      -0.27760000
H        2.77120000       3.09060000       1.05880000
H        2.82440000       1.29470000       0.68110000
H        2.32400000       1.81230000      -1.76440000
H        2.29100000       3.59790000      -1.36330000
