23
Properties=species:S:1:pos:R:3 gdb_63377=T pbc="F F F"
C       -0.75690000       1.38340000      -0.46580000
C        0.04210000       0.10260000      -0.24030000
C       -0.85930000      -1.12970000      -0.35340000
C        1.34470000      -0.03280000      -1.09010000
C        2.17150000      -0.36130000       0.20510000
C        3.43910000       0.47700000       0.41130000
C        0.92190000       0.08010000       1.04920000
C        2.47500000      -1.77950000       0.33990000
C        2.74250000      -2.94730000       0.45440000
H       -0.12120000       2.27200000      -0.38700000
H       -1.21870000       1.39060000      -1.46030000
H       -1.56120000       1.48210000       0.27290000
H       -1.32140000      -1.18510000      -1.34610000
H       -0.29410000      -2.05240000      -0.19300000
H       -1.66440000      -1.09350000       0.38980000
H        1.34500000      -0.80110000      -1.86620000
H        1.66310000       0.91600000      -1.53220000
H        3.21020000       1.54270000       0.30990000
H        3.86070000       0.30860000       1.40730000
H        4.20350000       0.21700000      -0.32760000
H        1.06770000       1.07500000       1.48040000
H        0.61240000      -0.60540000       1.84090000
H        2.97400000      -3.97870000       0.55460000
