14
Properties=species:S:1:pos:R:3 gdb_2632=T pbc="F F F"
O        0.47110000       0.88700000      -1.47360000
C        0.22350000       1.50580000      -0.46010000
N        1.09200000       1.67570000       0.57190000
C        2.43820000       1.12930000       0.54650000
C        3.41500000       1.99100000      -0.28720000
C        4.76880000       1.45560000      -0.26260000
C        5.87400000       0.98580000      -0.21280000
H       -0.75280000       1.99410000      -0.26810000
H        0.80720000       2.24930000       1.34900000
H        2.79820000       1.04230000       1.57440000
H        2.39250000       0.12660000       0.11520000
H        3.03960000       2.03080000      -1.31560000
H        3.41020000       3.01920000       0.09550000
H        6.85500000       0.58070000      -0.18590000
