18
Properties=species:S:1:pos:R:3 gdb_18243=T pbc="F F F"
O        0.01370000       1.40240000      -0.00530000
C       -0.01420000      -0.01330000       0.01010000
C       -1.42790000      -0.49570000       0.02900000
C       -2.53830000       0.24640000      -0.01710000
C       -3.79440000      -0.59740000       0.04370000
C       -3.26600000      -2.03220000       0.01830000
C       -2.46260000      -2.47720000      -1.17560000
C       -1.74790000      -1.95680000       0.05740000
H        0.93280000       1.68210000      -0.02890000
H        0.50100000      -0.43590000      -0.87120000
H        0.51480000      -0.41610000       0.89310000
H       -2.55030000       1.32490000      -0.10660000
H       -4.36510000      -0.39840000       0.96150000
H       -4.47700000      -0.38880000      -0.79090000
H       -3.79390000      -2.79380000       0.58000000
H       -2.42170000      -3.54450000      -1.36870000
H       -2.45080000      -1.85380000      -2.06450000
H       -1.14190000      -2.63990000       0.64440000
