11
Properties=species:S:1:pos:R:3 gdb_1199=T pbc="F F F"
C        0.00460000       1.50060000      -0.02120000
C       -0.02670000      -0.01020000       0.06190000
O       -0.06350000      -0.62110000       1.10850000
C       -0.01000000      -0.70690000      -1.21230000
C        0.00360000      -1.30130000      -2.26980000
C        0.01890000      -1.96200000      -3.45570000
C        0.03270000      -2.55010000      -4.51050000
H        0.90400000       1.82980000      -0.55280000
H       -0.85590000       1.86400000      -0.59330000
H       -0.01040000       1.92030000       0.98560000
H        0.04470000      -3.06730000      -5.43830000
