19
Properties=species:S:1:pos:R:3 gdb_110568=T pbc="F F F"
C       -0.25440000       1.32840000       0.09370000
O        0.37480000       0.08860000      -0.13770000
C        0.86460000      -0.50960000       1.03250000
C       -0.10400000      -1.34510000       1.90350000
C       -0.08400000      -2.54010000       0.89030000
C        0.28920000      -3.57470000       1.97450000
C        1.07750000      -2.30000000       2.33650000
O        2.00250000      -2.09300000       3.34220000
C        1.36830000      -1.94420000       0.84780000
H        0.42900000       2.04780000       0.57210000
H       -0.56040000       1.72610000      -0.87700000
H       -1.14580000       1.22660000       0.73120000
H        1.52740000       0.17850000       1.57790000
H       -0.94860000      -1.03920000       2.52330000
H       -0.74390000      -2.65730000       0.03680000
H       -0.50980000      -3.87850000       2.65990000
H        0.87640000      -4.44030000       1.65140000
H        1.56260000      -2.21490000       4.19060000
H        2.20140000      -2.31360000       0.24960000
