21
Properties=species:S:1:pos:R:3 gdb_73411=T pbc="F F F"
C        0.00160000       1.46350000       0.02020000
C       -0.00690000      -0.05310000      -0.03270000
C        0.40270000      -0.68040000      -1.37840000
C       -0.20540000      -2.11650000      -1.35300000
C       -0.89550000      -2.20270000       0.01420000
C        0.04360000      -2.14690000       1.22700000
C       -0.69360000      -0.99150000       1.86080000
C        0.63520000      -0.73140000       1.19320000
C       -1.32330000      -0.76350000       0.44050000
H        1.00880000       1.86130000      -0.15280000
H       -0.65750000       1.88930000      -0.74530000
H       -0.33350000       1.82620000       0.99810000
H       -0.00160000      -0.09780000      -2.21430000
H        1.49160000      -0.68670000      -1.49680000
H       -0.92870000      -2.24910000      -2.16500000
H        0.55230000      -2.89770000      -1.47280000
H       -1.67110000      -2.96610000       0.10440000
H        0.56170000      -2.96360000       1.71450000
H       -1.03850000      -0.82770000       2.87070000
H        1.58860000      -0.50250000       1.65490000
H       -2.30550000      -0.35350000       0.21000000
