17
Properties=species:S:1:pos:R:3 gdb_51814=T pbc="F F F"
N       -0.09440000       1.31150000       0.07310000
C       -0.03300000       0.06050000      -0.06520000
O       -1.13400000      -0.69460000       0.14080000
C       -1.00140000      -2.11170000       0.07640000
C       -1.03620000      -2.67940000       1.49450000
O       -1.04020000      -4.11060000       1.46850000
C       -1.77020000      -4.67540000       0.47220000
N       -2.32540000      -4.13290000      -0.52420000
C       -2.16870000      -2.69450000      -0.71810000
H        0.80890000       1.73060000      -0.13700000
H        0.84860000      -0.52670000      -0.35860000
H       -0.05030000      -2.38350000      -0.40060000
H       -0.15930000      -2.38140000       2.07380000
H       -1.93500000      -2.31770000       2.00840000
H       -1.83050000      -5.75050000       0.62790000
H       -3.09190000      -2.18190000      -0.42100000
H       -2.03710000      -2.50070000      -1.78760000
