19
Properties=species:S:1:pos:R:3 gdb_68754=T pbc="F F F"
C       -0.00760000       1.51940000       0.01560000
C        0.00440000       0.01270000       0.00890000
C        1.27520000      -0.73420000      -0.30070000
C        0.71500000      -0.78980000       1.10690000
O        1.43450000      -0.24290000       2.15090000
C       -0.17750000      -1.92720000       1.44450000
O       -0.15930000      -2.47200000       2.52700000
C       -1.16960000      -2.13830000       0.30600000
C       -1.27960000      -0.74380000      -0.35750000
H        0.92040000       1.91490000       0.43760000
H       -0.11860000       1.91780000      -0.99960000
H       -0.83830000       1.90250000       0.61840000
H        1.26550000      -1.61430000      -0.93740000
H        2.17860000      -0.13680000      -0.36990000
H        1.21210000      -0.79170000       2.91930000
H       -0.77340000      -2.89470000      -0.38190000
H       -2.11600000      -2.52050000       0.69190000
H       -2.14200000      -0.20740000       0.05380000
H       -1.42220000      -0.80330000      -1.44210000
