15
Properties=species:S:1:pos:R:3 gdb_27658=T pbc="F F F"
N        0.01090000       1.39040000       0.02870000
C       -0.09780000       0.00490000      -0.00770000
C       -1.15660000      -0.83100000       0.04810000
C       -0.65160000      -2.18540000      -0.01230000
C       -1.35110000      -3.40730000       0.02740000
C       -1.92840000      -4.46630000       0.06810000
C        0.71490000      -2.05080000      -0.11850000
N        1.71180000      -2.98220000      -0.29700000
O        1.07970000      -0.75790000      -0.11480000
H        0.48570000       1.72800000       0.86040000
H        0.49240000       1.76570000      -0.78240000
H       -2.18940000      -0.53400000       0.12990000
H       -2.44700000      -5.39180000       0.09250000
H        1.41020000      -3.92080000      -0.07310000
H        2.58980000      -2.74290000       0.14390000
