16
Properties=species:S:1:pos:R:3 gdb_14449=T pbc="F F F"
C        0.04420000       1.48030000      -0.11380000
C       -0.00780000      -0.00750000       0.01730000
O        0.55050000      -0.83470000      -1.06660000
C        0.05900000      -1.79910000      -0.07980000
C        0.61810000      -0.95820000       1.11530000
C       -0.37990000      -1.05740000       2.24860000
C       -1.57330000      -1.06910000       1.64260000
C       -1.24880000      -0.97640000       0.16740000
H        1.08040000       1.82120000      -0.20020000
H       -0.50260000       1.80570000      -1.00410000
H       -0.40760000       1.94700000       0.76700000
H        0.18110000      -2.86240000      -0.29990000
H        1.69250000      -0.92910000       1.29050000
H       -0.14980000      -1.10100000       3.30410000
H       -2.56050000      -1.12460000       2.08010000
H       -2.02450000      -0.96530000      -0.59680000
