17
Properties=species:S:1:pos:R:3 gdb_66820=T pbc="F F F"
C       -0.01640000       1.59060000      -0.12350000
C        0.07860000       0.09190000      -0.08720000
C        0.73880000      -0.79470000      -1.13130000
C        1.15220000      -1.97120000      -0.25650000
N        1.06740000      -1.75590000       1.14950000
C        0.35470000      -0.68920000       1.25120000
N       -1.05690000      -0.95430000       1.59700000
C       -1.12450000      -0.87300000       0.03730000
C       -0.29490000      -1.87760000      -0.83750000
H        0.97800000       2.04590000      -0.06160000
H       -0.49010000       1.94220000      -1.04640000
H       -0.60330000       1.96860000       0.72140000
H        1.22760000      -0.51260000      -2.05350000
H        1.80460000      -2.74630000      -0.64080000
H       -1.53410000      -0.09620000       1.89020000
H       -2.11370000      -0.61220000      -0.34220000
H       -0.69280000      -2.65250000      -1.47720000
