12
Properties=species:S:1:pos:R:3 gdb_133349=T pbc="F F F"
N        0.03270000       1.32870000      -0.10170000
C       -0.05860000      -0.01120000      -0.04110000
C       -1.18260000      -0.78110000      -0.02270000
C       -0.99160000      -2.18550000       0.04550000
F       -2.08360000      -2.93740000       0.06380000
N        0.11350000      -2.84420000       0.09330000
O        1.26530000      -2.04220000       0.07380000
C        1.25980000      -0.68860000       0.01060000
O        2.30460000      -0.08210000      -0.00130000
H        0.96020000       1.72430000      -0.10670000
H       -0.77480000       1.92350000      -0.14300000
H       -2.18780000      -0.38030000      -0.05690000
