17
Properties=species:S:1:pos:R:3 gdb_30329=T pbc="F F F"
O        0.06550000       1.43310000      -0.15050000
C       -0.00520000       0.01290000      -0.01490000
C        0.55840000      -0.50350000       1.36080000
N       -0.35770000      -1.57420000       1.84600000
C       -1.56230000      -1.35160000       1.14070000
C       -1.39980000      -0.47590000       0.10250000
N       -2.56070000      -0.45670000      -0.63240000
C       -3.47380000      -1.27510000      -0.01250000
C       -2.88270000      -1.86870000       1.09120000
H        0.96840000       1.66030000      -0.39650000
H        0.53720000      -0.44890000      -0.85700000
H        1.58050000      -0.88500000       1.27850000
H        0.56020000       0.36530000       2.03220000
H       -0.46110000      -1.55990000       2.85450000
H       -2.76220000       0.15870000      -1.40020000
H       -4.48000000      -1.36290000      -0.39110000
H       -3.35500000      -2.57660000       1.75410000
