17
Properties=species:S:1:pos:R:3 gdb_114438=T pbc="F F F"
C        0.08170000       1.33240000       0.09830000
O       -0.02430000      -0.07550000      -0.03280000
C        0.63780000      -0.58620000      -1.12730000
O        2.06490000      -0.40010000      -1.02540000
C        2.67290000      -1.60320000      -1.42070000
C        2.28600000      -2.87090000      -0.67810000
O        1.06640000      -2.65000000       0.02490000
C        0.48370000      -2.10470000      -1.19690000
C        1.69400000      -2.56610000      -2.03650000
H        1.11670000       1.63640000       0.28920000
H       -0.27990000       1.84510000      -0.80600000
H       -0.54470000       1.61860000       0.94540000
H        0.29340000      -0.09300000      -2.05700000
H        3.67610000      -1.48490000      -1.81190000
H        2.95700000      -3.64260000      -0.31810000
H       -0.52140000      -2.47880000      -1.38810000
H        1.72100000      -3.04830000      -3.00370000
