23
Properties=species:S:1:pos:R:3 gdb_116167=T pbc="F F F"
C        0.03320000       1.38880000      -0.01860000
O        0.05590000      -0.02810000      -0.00360000
C        0.70680000      -0.57430000       1.09130000
C        0.51930000      -2.08750000       1.07100000
C        1.31500000      -2.75640000       2.20510000
C        1.21520000      -4.28240000       2.14850000
C        2.77220000      -2.26560000       2.16350000
C        2.82580000      -0.73790000       2.11410000
O        2.08330000      -0.23160000       1.01710000
H        1.04210000       1.80730000      -0.09630000
H       -0.55340000       1.68600000      -0.89050000
H       -0.44690000       1.78810000       0.88800000
H        0.29840000      -0.14910000       2.03390000
H       -0.54790000      -2.32030000       1.15010000
H        0.86630000      -2.44940000       0.09570000
H        0.88110000      -2.42170000       3.16000000
H        1.63720000      -4.66790000       1.21310000
H        1.76120000      -4.74650000       2.97680000
H        0.17300000      -4.61430000       2.20450000
H        3.32730000      -2.62850000       3.03700000
H        3.26930000      -2.66680000       1.27080000
H        2.44050000      -0.31760000       3.06000000
H        3.84950000      -0.37610000       1.98270000
