24
Properties=species:S:1:pos:R:3 gdb_117667=T pbc="F F F"
C        0.37080000       1.58710000       0.44210000
C        0.10440000       0.09240000       0.16980000
C        0.77490000      -0.75910000       1.26010000
C       -1.41340000      -0.18700000       0.08720000
C       -2.25010000       0.17040000       1.31110000
O       -3.59340000      -0.18830000       1.01020000
N        0.63840000      -0.41940000      -1.11440000
C        0.69880000       0.40480000      -2.30960000
C        1.94570000      -0.03190000      -1.61480000
H        1.43630000       1.82860000       0.38410000
H       -0.16850000       2.23410000      -0.25640000
H        0.04270000       1.85320000       1.45070000
H        0.40960000      -0.49950000       2.25760000
H        0.58580000      -1.82120000       1.08180000
H        1.85880000      -0.60310000       1.25190000
H       -1.82330000       0.35990000      -0.77050000
H       -1.55360000      -1.25110000      -0.12810000
H       -1.89030000      -0.37350000       2.19830000
H       -2.17590000       1.24580000       1.53420000
H       -4.13740000       0.02500000       1.77380000
H        0.37540000      -0.07500000      -3.23000000
H        0.45120000       1.46210000      -2.24360000
H        2.51310000       0.74060000      -1.09930000
H        2.55330000      -0.84010000      -2.01430000
