13
Properties=species:S:1:pos:R:3 gdb_130805=T pbc="F F F"
O       -0.12630000      -0.03980000       0.00040000
C       -0.02880000       1.16860000       0.00830000
C        1.21050000       1.88860000       0.00000000
C        2.24480000       2.52080000      -0.00670000
C        3.44420000       3.24950000      -0.01450000
C        4.74250000       2.74720000      -0.03290000
N        5.55880000       3.81570000      -0.03380000
N        4.90310000       4.99900000      -0.01730000
C        3.62460000       4.66390000      -0.00560000
H       -0.92690000       1.82000000       0.02320000
H        5.10790000       1.73320000      -0.04480000
H        6.56540000       3.81970000      -0.04500000
H        2.85890000       5.42450000       0.00880000
