18
Properties=species:S:1:pos:R:3 gdb_123731=T pbc="F F F"
C       -0.13660000       1.53570000       0.04330000
C        1.39270000       1.51930000      -0.21600000
C        1.46360000       0.14100000       0.51410000
C       -0.07220000       0.00240000       0.26920000
C        2.39750000      -0.91340000       0.03740000
C        2.55790000      -1.47110000      -1.21380000
N        3.55130000      -2.37500000      -1.04800000
N        3.99580000      -2.39520000       0.22070000
N        3.29850000      -1.51300000       0.87600000
H       -0.38330000       2.06910000       0.96570000
H       -0.78430000       1.90610000      -0.75430000
H        1.61900000       1.41240000      -1.28170000
H        1.99950000       2.33300000       0.18800000
H        1.65800000       0.29400000       1.57880000
H       -0.67120000      -0.43250000       1.07260000
H       -0.27530000      -0.54920000      -0.65420000
H        2.07400000      -1.30990000      -2.16220000
H        3.96660000      -2.99340000      -1.72640000
