19
Properties=species:S:1:pos:R:3 gdb_38135=T pbc="F F F"
C        0.03810000       1.51790000      -0.14080000
C        1.35010000       0.75080000      -0.03600000
C        2.09980000       0.83460000       1.23560000
C        1.63000000       0.39020000       2.40440000
C        0.32140000      -0.31440000       2.51900000
O       -0.80780000       0.51300000       2.94200000
C       -1.65430000      -0.09780000       1.94360000
C       -0.43270000      -0.70070000       1.21900000
C        0.02180000       0.01710000      -0.03930000
H       -0.24890000       2.09190000       0.73340000
H       -0.21740000       1.96920000      -1.09360000
H        1.95310000       0.70140000      -0.93700000
H        3.07760000       1.30880000       1.19390000
H        2.21780000       0.50460000       3.31050000
H        0.41380000      -1.16700000       3.20840000
H       -2.33210000      -0.84290000       2.38390000
H       -2.24050000       0.64430000       1.39150000
H       -0.47950000      -1.77570000       1.03280000
H       -0.21540000      -0.50580000      -0.96070000
