19
Properties=species:S:1:pos:R:3 gdb_118618=T pbc="F F F"
O       -0.12650000       1.51210000       0.02240000
C        0.03750000       0.10500000      -0.06570000
C       -1.34960000      -0.51710000       0.03720000
C       -1.33860000      -2.06130000       0.01590000
C       -2.76880000      -2.61360000       0.25520000
C       -2.81910000      -4.12140000       0.38370000
O       -3.37650000      -4.70420000       1.27870000
C       -0.77320000      -2.58080000      -1.23060000
C       -0.32930000      -2.99600000      -2.26840000
H        0.73350000       1.92320000      -0.10280000
H        0.50830000      -0.18830000      -1.01500000
H        0.67600000      -0.27470000       0.74970000
H       -1.81290000      -0.18190000       0.97150000
H       -1.97000000      -0.14240000      -0.78430000
H       -0.70510000      -2.40450000       0.84680000
H       -3.19870000      -2.17690000       1.16060000
H       -3.39890000      -2.32710000      -0.59800000
H       -2.29660000      -4.67490000      -0.42660000
H        0.07290000      -3.36830000      -3.17830000
