15
Properties=species:S:1:pos:R:3 gdb_17981=T pbc="F F F"
C        0.09550000      -1.19470000       0.16640000
C        0.06560000       0.00540000       0.11070000
C        0.02890000       1.45250000       0.01570000
N       -0.31500000       2.19400000       1.27590000
C        0.84500000       3.10350000       1.10690000
C        2.07880000       2.58550000       1.86630000
O        2.43220000       1.71860000       0.75300000
C        1.37780000       2.23900000      -0.05870000
H        0.13270000      -2.25410000       0.22800000
H       -0.60480000       1.75130000      -0.83150000
H       -1.21430000       2.65770000       1.22490000
H        0.64330000       4.17450000       1.07550000
H        2.86620000       3.32780000       2.04810000
H        1.85960000       2.02520000       2.77990000
H        1.71600000       2.56580000      -1.04430000
