18
Properties=species:S:1:pos:R:3 gdb_55221=T pbc="F F F"
C       -0.03980000       1.48740000      -0.18990000
C        0.07730000      -0.01230000      -0.00320000
O        1.14690000      -0.56950000       0.07970000
C       -1.23750000      -0.79220000       0.04720000
C       -1.71660000      -1.16170000      -1.39400000
N       -2.42110000      -2.40850000      -1.17730000
C       -2.08970000      -3.07020000      -0.01880000
O       -2.47190000      -4.17270000       0.29860000
C       -1.14820000      -2.14860000       0.75750000
H        0.94540000       1.92510000      -0.35280000
H       -0.70130000       1.72630000      -1.03040000
H       -0.49390000       1.93310000       0.70340000
H       -2.01070000      -0.16790000       0.50630000
H       -2.37350000      -0.39470000      -1.81600000
H       -0.85960000      -1.28670000      -2.07190000
H       -2.89020000      -2.90570000      -1.91830000
H       -0.12940000      -2.54380000       0.68510000
H       -1.42130000      -2.11660000       1.81330000
