15
Properties=species:S:1:pos:R:3 gdb_23232=T pbc="F F F"
O       -0.21870000       1.39430000       0.02350000
N       -0.01270000      -0.00220000      -0.07110000
C       -1.11210000      -0.62460000      -0.06980000
C       -2.59190000      -0.31250000       0.11900000
N       -3.17970000      -0.85080000      -1.16860000
C       -2.85180000      -2.18460000      -0.61050000
C       -2.71200000      -1.73810000       0.81240000
C       -1.43980000      -2.07240000       0.01390000
O       -0.62570000      -3.15240000       0.22100000
H        0.68490000       1.72680000       0.02290000
H       -2.93130000       0.64780000       0.49160000
H       -4.19250000      -0.74210000      -1.09780000
H       -3.19280000      -3.12510000      -1.02580000
H       -3.03030000      -2.09220000       1.78340000
H       -0.20190000      -3.38240000      -0.61390000
