17
Properties=species:S:1:pos:R:3 gdb_111084=T pbc="F F F"
O        0.04680000       1.53790000      -0.07990000
C        0.11290000       0.12040000      -0.12590000
C       -1.26740000      -0.51050000      -0.00090000
C       -1.50980000      -2.04020000       0.13440000
C       -0.65490000      -2.49770000       1.33130000
C       -1.04000000      -1.31950000       2.25570000
O       -0.65080000      -1.03920000       3.35460000
C       -2.04240000      -0.58500000       1.34820000
O       -2.77620000      -1.73030000       0.80940000
H       -0.14470000       1.79870000       0.82660000
H        0.53480000      -0.12880000      -1.10590000
H        0.80880000      -0.26790000       0.63130000
H       -1.93850000      -0.10060000      -0.75920000
H       -1.61340000      -2.70100000      -0.72510000
H       -1.00450000      -3.45280000       1.73070000
H        0.42400000      -2.55510000       1.16480000
H       -2.65420000       0.21150000       1.76640000
