16
Properties=species:S:1:pos:R:3 gdb_53137=T pbc="F F F"
C        0.03580000       1.51610000      -0.02610000
C       -0.00350000       0.06260000       0.02130000
C       -0.03410000      -1.14100000       0.07130000
C       -0.03580000      -2.57830000       0.08350000
C       -0.45370000      -3.41370000       1.26350000
N       -1.25310000      -3.40390000      -0.03860000
C       -2.35810000      -2.63590000       0.64560000
C       -1.59950000      -2.75530000       1.98250000
O       -1.88870000      -2.60970000       3.13300000
H        1.06910000       1.87930000      -0.02730000
H       -0.45230000       1.89810000      -0.92940000
H       -0.47050000       1.95440000       0.84050000
H        0.78140000      -3.02850000      -0.47700000
H        0.13920000      -4.25660000       1.60200000
H       -2.54730000      -1.64290000       0.23490000
H       -3.27710000      -3.22750000       0.65550000
