19
Properties=species:S:1:pos:R:3 gdb_126975=T pbc="F F F"
C        0.10800000       0.74790000       1.02500000
C       -0.47740000      -0.53380000       0.43880000
N       -1.32330000      -0.22610000      -0.71500000
C       -1.92340000      -1.38500000      -1.37860000
C       -2.94390000      -2.14060000      -0.57170000
N       -4.24340000      -1.88510000      -0.66480000
N       -4.77270000      -2.73410000       0.24820000
C       -3.79810000      -3.45310000       0.83790000
N       -2.62530000      -3.10670000       0.34730000
H        0.77800000       0.52180000       1.86010000
H        0.66750000       1.30130000       0.26530000
H       -0.68330000       1.40500000       1.40520000
H        0.33310000      -1.18470000       0.08590000
H       -1.00120000      -1.10000000       1.22630000
H       -2.06260000       0.41170000      -0.43350000
H       -2.40470000      -1.04060000      -2.29890000
H       -1.11730000      -2.07250000      -1.65540000
H       -5.76950000      -2.76870000       0.38500000
H       -3.98720000      -4.19890000       1.59560000
