15
Properties=species:S:1:pos:R:3 gdb_16847=T pbc="F F F"
O       -0.08730000       0.01350000      -0.61910000
C       -0.03540000       1.17850000      -0.27720000
C       -1.31880000       1.93150000       0.11360000
C       -1.19510000       3.44930000       0.05950000
C       -0.74820000       4.27510000       1.22730000
N        0.13120000       4.06250000       0.06940000
C        1.23930000       3.22800000       0.17300000
C        1.22140000       1.91060000      -0.10610000
H       -2.11520000       1.58940000      -0.55100000
H       -1.58780000       1.58320000       1.11810000
H       -1.86340000       3.94160000      -0.64300000
H       -1.12000000       5.28700000       1.35770000
H       -0.49360000       3.74760000       2.14350000
H        2.15950000       3.74720000       0.43290000
H        2.13900000       1.33670000      -0.15850000
