20
Properties=species:S:1:pos:R:3 gdb_116785=T pbc="F F F"
C       -0.93590000       1.09200000      -0.56290000
O       -0.62680000      -0.00230000       0.28820000
C       -1.22420000      -1.17180000      -0.03440000
N       -1.01000000      -2.19630000       0.66070000
C       -1.67330000      -3.44910000       0.33560000
C       -2.24050000      -3.61670000      -1.06420000
C       -3.33200000      -4.64580000      -1.29260000
C       -3.63690000      -3.17430000      -1.40220000
O       -4.35640000      -2.53260000      -0.38850000
H       -0.39950000       1.95420000      -0.16420000
H       -0.60320000       0.91040000      -1.59290000
H       -2.01110000       1.31020000      -0.56650000
H       -1.87600000      -1.11370000      -0.91510000
H       -0.94710000      -4.25250000       0.51280000
H       -2.47520000      -3.60050000       1.06810000
H       -1.50700000      -3.50970000      -1.85970000
H       -3.31430000      -5.24830000      -2.19410000
H       -3.70820000      -5.15690000      -0.41150000
H       -3.80730000      -2.77170000      -2.40150000
H       -5.26660000      -2.84410000      -0.42300000
