15
Properties=species:S:1:pos:R:3 gdb_77445=T pbc="F F F"
C        0.09790000       1.52850000      -0.02970000
C        0.05190000       0.04670000       0.08400000
O        0.58560000      -0.76600000      -1.01340000
C        1.22180000      -1.62270000      -0.12240000
O        1.97130000      -2.51100000      -0.36520000
C        0.60150000      -0.96120000       1.07280000
O        1.09640000      -0.77630000       2.34410000
C       -0.92660000      -0.82090000       0.81420000
O       -1.60480000      -0.26150000       1.88550000
H        1.12490000       1.89330000      -0.11770000
H       -0.46580000       1.85490000      -0.90960000
H       -0.36640000       1.97030000       0.85530000
H        1.18260000      -1.64090000       2.76650000
H       -1.48720000      -1.58460000       0.27910000
H       -0.98900000      -0.22250000       2.63200000
