22
Properties=species:S:1:pos:R:3 gdb_111407=T pbc="F F F"
C       -0.00340000       1.60370000      -0.10040000
C        0.03260000       0.07140000      -0.12620000
C       -1.34710000      -0.54350000       0.05760000
C       -1.50790000      -2.07080000       0.38160000
O       -0.36800000      -2.85910000       0.62030000
C        0.15300000      -3.48030000      -0.53570000
C       -2.23220000      -1.64170000       1.64340000
C       -1.39170000      -0.73950000       2.45150000
N       -2.11710000      -0.16100000       1.30610000
H        0.99920000       2.02260000      -0.23000000
H       -0.63840000       1.99800000      -0.90110000
H       -0.40640000       1.97000000       0.84810000
H        0.43300000      -0.27280000      -1.08850000
H        0.72460000      -0.30390000       0.63440000
H       -1.98240000      -0.26770000      -0.79070000
H       -2.16890000      -2.57050000      -0.33950000
H        1.00110000      -4.09220000      -0.21920000
H       -0.59510000      -4.13070000      -1.01490000
H        0.50350000      -2.75160000      -1.28060000
H       -3.15630000      -2.07310000       2.01300000
H       -1.79690000      -0.41140000       3.40360000
H       -0.31160000      -0.84080000       2.42960000
