20
Properties=species:S:1:pos:R:3 gdb_84129=T pbc="F F F"
C       -0.10840000       1.47800000       0.01400000
C        0.00280000      -0.01290000      -0.02080000
C       -0.16210000      -0.80860000      -1.08220000
C        0.01350000      -2.26820000      -0.76610000
O        0.97160000      -2.93120000      -1.59430000
C        0.40680000      -2.24860000       0.73410000
C        0.20840000      -3.44440000       1.58360000
N        1.56350000      -3.04590000       1.16310000
C        0.30200000      -0.80710000       1.23220000
H        0.82050000       1.93150000       0.38210000
H       -0.32640000       1.89280000      -0.97370000
H       -0.90160000       1.79680000       0.70210000
H       -0.40210000      -0.47150000      -2.08530000
H       -0.90790000      -2.84120000      -0.92750000
H        1.73840000      -2.34920000      -1.65820000
H        0.00570000      -3.33200000       2.64620000
H       -0.24060000      -4.32480000       1.12790000
H        1.84560000      -3.62420000       0.37160000
H        1.22880000      -0.48510000       1.72260000
H       -0.50160000      -0.68380000       1.97140000
