12
Properties=species:S:1:pos:R:3 gdb_48379=T pbc="F F F"
O       -0.21030000       0.30330000      -0.67800000
C        0.13160000       1.03020000       0.20990000
C        1.32670000       1.96060000       0.09110000
O        2.26070000       1.67820000      -0.93820000
C        1.46700000       2.84270000      -1.12850000
C        0.49750000       2.85750000      -2.18230000
C       -0.29830000       2.93260000      -3.07850000
C        1.86810000       2.43690000       1.34830000
N        2.25650000       2.80360000       2.37310000
H       -0.39760000       1.09700000       1.18180000
H        2.00120000       3.77760000      -0.96170000
H       -1.00610000       2.97840000      -3.87030000
