18
Properties=species:S:1:pos:R:3 gdb_116259=T pbc="F F F"
C        0.11880000       1.16960000       0.33850000
O        0.06310000      -0.20770000       0.03330000
C        0.58020000      -0.54430000      -1.23380000
C        2.11610000      -0.72120000      -1.21910000
O        2.38480000      -2.11540000      -1.06540000
C        1.17680000      -2.80310000      -0.79680000
C        0.11280000      -1.98240000      -1.55610000
C       -1.26830000      -2.26860000      -1.19710000
N       -2.36250000      -2.53080000      -0.93550000
H        1.15150000       1.54470000       0.39060000
H       -0.43180000       1.76640000      -0.40380000
H       -0.34970000       1.29720000       1.31630000
H        0.24930000       0.18010000      -1.99000000
H        2.58190000      -0.38170000      -2.15150000
H        2.54880000      -0.15310000      -0.38620000
H        1.27370000      -3.82760000      -1.16260000
H        0.94190000      -2.82080000       0.27600000
H        0.24100000      -2.15800000      -2.62980000
