16
Properties=species:S:1:pos:R:3 gdb_123752=T pbc="F F F"
C       -0.04210000       1.42660000      -0.14220000
C        1.49930000       1.49560000      -0.02240000
C        1.39960000       0.08520000       0.63160000
N        0.04290000      -0.04120000       0.05140000
C        2.37380000      -0.96610000       0.22400000
N        3.12910000      -1.69660000       0.99470000
C        3.81850000      -2.45030000       0.07820000
N        3.52370000      -2.21610000      -1.17090000
O        2.55070000      -1.21610000      -1.07950000
H       -0.54480000       1.96280000       0.67440000
H       -0.49120000       1.72920000      -1.09260000
H        1.99980000       1.46110000      -0.99060000
H        1.92920000       2.28670000       0.59120000
H        1.43130000       0.13720000       1.72680000
H       -0.65150000      -0.45510000       0.66400000
H        4.55610000      -3.19170000       0.34920000
