17
Properties=species:S:1:pos:R:3 gdb_14492=T pbc="F F F"
C       -0.15520000       1.55510000      -0.01200000
C        0.01070000       0.03140000       0.00800000
C       -1.30970000      -0.56790000      -0.20670000
N       -2.37180000      -0.99250000      -0.37920000
C        1.20240000      -0.66650000      -0.75710000
C        2.15640000      -0.13490000       0.35210000
C        0.90370000      -0.67460000       1.10200000
C        0.98300000      -1.90870000       0.15580000
H        0.78750000       2.08090000       0.13950000
H       -0.57380000       1.87650000      -0.97030000
H       -0.85010000       1.86930000       0.77250000
H        1.35710000      -0.65210000      -1.83640000
H        3.07060000      -0.71410000       0.49650000
H        2.36850000       0.93250000       0.39090000
H        0.71230000      -0.66950000       2.17550000
H        0.07040000      -2.48690000       0.00660000
H        1.85180000      -2.55490000       0.29260000
