17
Properties=species:S:1:pos:R:3 gdb_11798=T pbc="F F F"
C       -0.21450000       1.47270000      -0.01360000
C       -0.03610000      -0.04030000      -0.01990000
C        1.16260000      -0.58520000      -0.77860000
N        1.55820000      -0.52030000      -1.96610000
O        1.72530000      -1.19640000       0.32710000
C        0.65050000      -0.71320000       1.17160000
C        0.91600000      -0.24520000       2.55800000
C        0.13190000      -1.52940000       2.29910000
H        0.70570000       1.97740000       0.29440000
H       -0.47460000       1.82270000      -1.01620000
H       -1.01560000       1.77050000       0.67050000
H       -0.96350000      -0.54190000      -0.31310000
H        2.44280000      -1.01500000      -2.09290000
H        1.92900000      -0.34760000       2.93140000
H        0.38270000       0.62750000       2.92070000
H       -0.93720000      -1.53410000       2.48560000
H        0.63390000      -2.46850000       2.50470000
