16
Properties=species:S:1:pos:R:3 gdb_126075=T pbc="F F F"
C       -0.13450000       1.50970000      -0.18050000
C       -0.04420000       0.02620000       0.04880000
O        1.23180000      -0.59260000      -0.11390000
C        0.66540000      -0.59890000       1.19250000
C        1.34550000       0.16160000       2.26670000
N        2.22950000       1.10380000       2.02010000
O        2.62650000       1.58220000       3.26420000
C        1.97330000       0.90930000       4.22040000
C        1.14410000      -0.01030000       3.66960000
H        0.68720000       2.03390000       0.31050000
H       -0.09270000       1.72230000      -1.25380000
H       -1.08720000       1.89330000       0.20030000
H       -0.86590000      -0.56120000      -0.36790000
H        0.30840000      -1.57530000       1.52420000
H        2.20430000       1.19070000       5.23610000
H        0.49130000      -0.70620000       4.16950000
