22
Properties=species:S:1:pos:R:3 gdb_40731=T pbc="F F F"
C        0.01490000       1.47560000      -0.10770000
C        1.36010000       0.80890000       0.06210000
C        1.89120000       0.63090000       1.47510000
C        0.70920000       0.04510000       2.28470000
C       -0.13800000      -0.73260000       1.24870000
C        0.10850000      -0.03210000      -0.07750000
N        1.17160000      -0.82230000       3.36370000
C        1.48890000      -0.16490000       4.62880000
C        0.25890000      -0.99130000       4.49150000
H       -0.43170000       2.00120000       0.73090000
H       -0.18760000       1.93670000      -1.06850000
H        2.07480000       0.88900000      -0.74950000
H        2.70770000      -0.10040000       1.47610000
H        2.27590000       1.55550000       1.91930000
H        0.10650000       0.87360000       2.69650000
H        0.23410000      -1.76240000       1.20010000
H       -1.19540000      -0.77690000       1.53190000
H       -0.10300000      -0.57430000      -0.99260000
H        2.35750000      -0.54750000       5.15680000
H        1.35720000       0.91450000       4.68970000
H       -0.69300000      -0.46300000       4.46090000
H        0.21160000      -1.98940000       4.91730000
