16
Properties=species:S:1:pos:R:3 gdb_124778=T pbc="F F F"
C        0.22040000       1.35740000       0.42260000
C       -0.10250000      -0.08670000       0.02940000
O       -1.50120000      -0.28330000      -0.15240000
C        0.65390000      -0.54020000      -1.19220000
C        0.16830000      -1.16240000      -2.29720000
O        1.14140000      -1.42630000      -3.18320000
N        2.35430000      -0.97410000      -2.66100000
C        2.04830000      -0.46140000      -1.49490000
O        2.98340000       0.07060000      -0.68830000
H        1.28750000       1.47840000       0.62440000
H       -0.04700000       2.04430000      -0.38950000
H       -0.34700000       1.63200000       1.31570000
H        0.15790000      -0.74210000       0.87020000
H       -1.81250000       0.40420000      -0.75250000
H       -0.82520000      -1.47900000      -2.57140000
H        3.83670000      -0.00980000      -1.13570000
