15
Properties=species:S:1:pos:R:3 gdb_62289=T pbc="F F F"
O        0.07580000       1.37760000      -0.03080000
C        0.01400000      -0.01790000       0.00280000
C        0.84060000      -0.53600000       1.08200000
C        1.52940000      -0.98440000       1.95810000
C       -1.36810000      -0.70160000      -0.07610000
C       -1.68530000      -0.71420000      -1.57350000
O       -0.61840000      -0.03340000      -2.25760000
C        0.28380000      -0.74800000      -1.36560000
C       -0.82620000      -1.78750000      -1.00550000
H       -0.28550000       1.61660000      -0.89740000
H        2.13820000      -1.36880000       2.73890000
H       -2.11830000      -0.78100000       0.69900000
H       -2.67630000      -0.70710000      -2.00560000
H        1.28380000      -0.89590000      -1.76450000
H       -0.87410000      -2.86520000      -0.98200000
