16
Properties=species:S:1:pos:R:3 gdb_32710=T pbc="F F F"
C       -0.31460000       1.59640000      -0.03930000
C        0.56940000       0.37130000       0.17300000
N        1.34900000       0.09430000      -1.02500000
C        2.14130000      -0.87770000      -1.05440000
O        2.27160000      -1.71790000       0.10920000
C        3.11840000      -2.74340000       0.05540000
N        3.84890000      -3.07450000      -0.94280000
C        3.69220000      -2.23820000      -2.04540000
N        2.91840000      -1.21530000      -2.14360000
H        0.29420000       2.47480000      -0.27170000
H       -1.00160000       1.43480000      -0.87490000
H       -0.90310000       1.80860000       0.85880000
H        1.23850000       0.53090000       1.03120000
H       -0.04790000      -0.50080000       0.43340000
H        3.13580000      -3.30610000       0.98650000
H        4.30210000      -2.49900000      -2.90720000
