15
Properties=species:S:1:pos:R:3 gdb_13556=T pbc="F F F"
O       -0.93740000      -0.30510000      -0.22030000
C        0.37990000      -0.76660000      -0.51710000
C        1.14560000       0.28040000      -1.22120000
N        1.74340000       1.11690000      -1.74840000
C        1.14460000      -1.27040000       0.70300000
C        0.85730000      -0.71900000       2.09050000
C        0.43570000      -2.12160000       1.72830000
O       -0.89840000      -2.48910000       1.59160000
H       -0.86820000       0.55650000       0.20760000
H        0.23240000      -1.59880000      -1.21540000
H        2.17650000      -1.51990000       0.47340000
H        1.69150000      -0.55910000       2.76420000
H        0.05860000       0.00890000       2.19520000
H        1.00120000      -2.94050000       2.16110000
H       -1.34810000      -1.79800000       1.08620000
