16
Properties=species:S:1:pos:R:3 gdb_29836=T pbc="F F F"
C       -0.05460000       1.45470000       0.02100000
N       -0.01370000       0.00530000       0.00030000
C        0.00480000      -0.77630000      -1.11950000
C        0.02140000      -2.09990000      -0.71960000
C        0.03640000      -2.11260000       0.71150000
C        0.01690000      -0.80220000       1.12360000
N       -0.06160000      -0.21460000       2.39810000
C        0.03040000      -3.22320000      -1.58000000
N        0.03930000      -4.14940000      -2.27700000
H        0.95100000       1.88890000       0.06230000
H       -0.55430000       1.81480000      -0.88010000
H       -0.61450000       1.77850000       0.90030000
H        0.00710000      -0.34560000      -2.10700000
H        0.06080000      -2.98560000       1.34360000
H       -0.33380000      -0.89910000       3.09230000
H        0.81360000       0.20580000       2.69700000
