18
Properties=species:S:1:pos:R:3 gdb_18394=T pbc="F F F"
C        0.03720000       1.52570000      -0.11500000
C        1.43920000       2.15020000       0.11380000
C        2.24030000       1.51030000       1.22850000
C        2.73480000       0.27340000       1.15380000
C        2.52620000      -0.58410000      -0.04780000
O        1.76020000      -1.79010000       0.11090000
C        1.18230000      -0.71220000      -0.63700000
C        0.00220000      -0.01110000       0.00910000
H       -0.67780000       1.93990000       0.60470000
H       -0.31360000       1.83840000      -1.10540000
H        2.00950000       2.06910000      -0.81850000
H        1.32340000       3.22180000       0.30220000
H        2.41480000       2.09840000       2.12660000
H        3.31960000      -0.14640000       1.96880000
H        3.39380000      -0.71820000      -0.69810000
H        1.11350000      -0.90600000      -1.70850000
H        0.01340000      -0.29200000       1.06510000
H       -0.93600000      -0.39370000      -0.40830000
