14
Properties=species:S:1:pos:R:3 gdb_45911=T pbc="F F F"
N       -0.15630000       1.37080000      -0.14150000
C       -0.07300000       0.13410000       0.07200000
C       -1.23300000      -0.81010000      -0.04650000
C       -1.28580000      -1.74880000       1.16630000
C        0.01940000      -2.49870000       1.29300000
O        0.13480000      -3.62440000       1.69120000
C        1.30580000      -1.72550000       0.87400000
O        2.39820000      -2.18670000       0.97880000
O        1.15090000      -0.43870000       0.41530000
H        0.75040000       1.82560000      -0.01730000
H       -2.14210000      -0.21770000      -0.14690000
H       -1.11710000      -1.39990000      -0.96530000
H       -1.42790000      -1.16200000       2.08450000
H       -2.10420000      -2.46910000       1.10700000
