19
Properties=species:S:1:pos:R:3 gdb_75480=T pbc="F F F"
C       -0.07970000       1.58410000      -0.17140000
C        0.01080000       0.09300000      -0.11630000
C        0.09000000      -0.77370000      -1.12720000
C        0.13030000      -2.21280000      -0.67830000
C        0.34940000      -2.09550000       0.85030000
C       -0.02950000      -0.64390000       1.20510000
O        0.91620000      -0.07330000       2.13710000
C        0.49790000       0.22470000       3.37880000
O        1.21880000       0.67960000       4.21590000
H        0.73770000       2.04520000       0.39390000
H       -0.03830000       1.94950000      -1.20040000
H       -1.01480000       1.94260000       0.27920000
H        0.09070000      -0.49170000      -2.17510000
H       -0.81410000      -2.72230000      -0.91260000
H        0.91880000      -2.79080000      -1.17290000
H       -0.21410000      -2.83220000       1.42770000
H        1.40800000      -2.22380000       1.09240000
H       -1.02830000      -0.57010000       1.66200000
H       -0.57760000       0.00590000       3.53410000
