19
Properties=species:S:1:pos:R:3 gdb_6506=T pbc="F F F"
C       -0.05910000       1.52410000      -0.02850000
C       -0.00260000       0.00700000      -0.00890000
C       -1.25030000      -0.64280000      -0.58020000
C        1.31590000      -0.67920000      -0.23550000
C        0.70840000      -0.69130000       1.16620000
C        1.37670000       0.08720000       2.29310000
C        0.15020000      -1.94440000       1.61480000
N       -0.29150000      -2.94250000       2.00060000
H        0.86740000       1.99130000       0.31050000
H       -0.24410000       1.87100000      -1.05120000
H       -0.87670000       1.89650000       0.59860000
H       -1.38380000      -0.34250000      -1.62550000
H       -1.20150000      -1.73320000      -0.54410000
H       -2.14260000      -0.33120000      -0.02630000
H        1.32810000      -1.61140000      -0.78920000
H        2.20610000      -0.07070000      -0.35920000
H        1.87650000       0.98090000       1.91650000
H        0.64710000       0.39460000       3.04850000
H        2.13010000      -0.53390000       2.78660000
