22
Properties=species:S:1:pos:R:3 gdb_86913=T pbc="F F F"
O       -0.05180000       1.33290000      -0.27230000
C        0.03280000      -0.04910000      -0.01200000
C        0.24720000      -0.53280000       1.45050000
C       -0.83920000      -1.61530000       1.19300000
C       -1.82420000      -1.92160000       2.30860000
N       -2.87720000      -2.82040000       1.84580000
C       -2.62030000      -4.24900000       1.99560000
C       -3.60180000      -3.55490000       2.87460000
C       -1.32530000      -0.77650000      -0.02180000
H        0.83810000       1.69920000      -0.25820000
H        0.74730000      -0.53750000      -0.69100000
H        1.24570000      -0.85740000       1.75520000
H       -0.11340000       0.23200000       2.14660000
H       -0.37580000      -2.54780000       0.85180000
H       -1.28230000      -2.33540000       3.18150000
H       -2.30200000      -0.99100000       2.64120000
H       -2.95750000      -4.88260000       1.18030000
H       -1.67840000      -4.55390000       2.45060000
H       -3.31240000      -3.39890000       3.91320000
H       -4.66980000      -3.67060000       2.71250000
H       -2.11760000      -0.08180000       0.27370000
H       -1.62830000      -1.29680000      -0.93170000
