25
Properties=species:S:1:pos:R:3 gdb_122015=T pbc="F F F"
C       -0.03040000       1.81940000      -0.44250000
C       -0.20030000       0.30200000      -0.33850000
C        0.81800000      -0.45740000      -1.17930000
O        0.59050000      -1.84210000      -1.01540000
C        1.35820000      -2.68820000      -1.85730000
C        2.81850000      -2.79920000      -1.41830000
C        0.64430000      -4.03870000      -1.81950000
O        1.28300000      -4.90990000      -2.72550000
C        0.70720000      -6.19290000      -2.75110000
H        0.96200000       2.13500000      -0.10180000
H       -0.15070000       2.16560000      -1.47520000
H       -0.77160000       2.34110000       0.16970000
H       -0.09910000      -0.02130000       0.70400000
H       -1.20590000       0.00720000      -0.65970000
H        0.71950000      -0.17930000      -2.24320000
H        1.83890000      -0.18200000      -0.86880000
H        1.31760000      -2.31500000      -2.89430000
H        3.32750000      -3.55040000      -2.02700000
H        3.34890000      -1.84950000      -1.52970000
H        2.87160000      -3.10380000      -0.36750000
H        0.67440000      -4.44370000      -0.79370000
H       -0.41430000      -3.89440000      -2.08720000
H        0.76310000      -6.68600000      -1.76750000
H       -0.35090000      -6.16000000      -3.05620000
H        1.26520000      -6.78910000      -3.47740000
