17
Properties=species:S:1:pos:R:3 gdb_17742=T pbc="F F F"
C        0.00770000       1.50020000       0.02620000
C        0.05360000      -0.00420000      -0.00220000
C        0.85000000      -0.83520000      -1.04480000
C        0.73700000      -1.95420000      -0.00070000
C        0.64770000      -0.91810000       1.15900000
C       -0.76920000      -1.45410000       1.47770000
C       -1.24430000      -0.81460000       0.22880000
N       -0.75060000      -2.23240000       0.19980000
H        1.01450000       1.93100000       0.00950000
H       -0.53700000       1.89360000      -0.84070000
H       -0.49920000       1.86320000       0.92750000
H        0.41590000      -0.99770000      -2.03600000
H        1.88210000      -0.47970000      -1.13640000
H        1.34260000      -2.85900000      -0.00770000
H        1.44690000      -0.61130000       1.82920000
H       -1.27970000      -1.79060000       2.37210000
H       -2.24680000      -0.61960000      -0.13380000
