19
Properties=species:S:1:pos:R:3 gdb_79563=T pbc="F F F"
C        0.04050000       1.46770000      -0.06280000
C        0.01960000      -0.03480000      -0.05600000
C       -0.90740000      -0.84760000       0.78390000
O       -1.83320000      -1.78080000       0.29150000
C        0.57310000      -1.03570000       0.99710000
C        1.35950000      -1.76830000      -0.11920000
C        0.51620000      -2.29030000      -1.27570000
C        0.81870000      -0.82390000      -1.15330000
O        1.55150000      -0.12460000      -2.09850000
H        1.04630000       1.84480000      -0.27090000
H       -0.62760000       1.87160000      -0.83400000
H       -0.28700000       1.86840000       0.90150000
H       -1.33010000      -0.23130000       1.58390000
H       -1.92150000      -2.47640000       0.95270000
H        1.02850000      -0.80830000       1.95480000
H        2.38170000      -2.09280000       0.02270000
H        1.12890000      -2.76530000      -2.03810000
H       -0.47440000      -2.69910000      -1.14330000
H        1.00740000      -0.03020000      -2.88880000
