17
Properties=species:S:1:pos:R:3 gdb_107312=T pbc="F F F"
N        0.03540000       1.21740000       0.07950000
C       -0.10680000      -0.14310000       0.05690000
N       -1.18300000      -0.80520000      -0.13900000
C       -0.77730000      -2.18730000      -0.20780000
C        0.17860000      -2.56790000      -1.32780000
C        0.71860000      -2.21050000       0.02930000
C        1.53840000      -3.11280000       0.90370000
O        1.40560000      -2.80630000       2.27920000
O        1.06810000      -0.83140000       0.20480000
H        0.80550000       1.56210000       0.63240000
H       -0.83380000       1.71130000       0.21360000
H       -1.46560000      -2.92280000       0.19160000
H        0.22940000      -3.61740000      -1.59940000
H        0.31500000      -1.86930000      -2.14670000
H        1.19430000      -4.14310000       0.77150000
H        2.59330000      -3.07520000       0.58590000
H        1.61860000      -1.87170000       2.37390000
