16
Properties=species:S:1:pos:R:3 gdb_41056=T pbc="F F F"
C        0.05930000       1.48220000      -0.16970000
O        1.47420000       1.53700000       0.23940000
C        1.41170000       0.18850000       0.65580000
C        0.97830000      -0.42670000       2.01560000
C        0.96310000      -1.73490000       1.26640000
C       -0.29860000      -0.85930000       1.30340000
C        0.02780000      -0.04090000       0.03710000
N        0.64080000      -0.86510000      -1.04300000
C        1.67820000      -1.19070000      -0.03910000
H       -0.56700000       2.06690000       0.51250000
H       -0.07070000       1.82040000      -1.20030000
H        1.20150000      -0.21280000       3.05100000
H        1.00970000      -2.72950000       1.68590000
H       -1.24570000      -1.19970000       1.70570000
H        0.08130000      -1.65620000      -1.35700000
H        2.61200000      -1.65270000      -0.36530000
