18
Properties=species:S:1:pos:R:3 gdb_23293=T pbc="F F F"
C       -0.07240000       1.51230000      -0.03270000
C        0.05990000       0.00440000       0.08020000
O        0.90190000      -0.51920000      -0.99390000
C        1.93560000      -1.20980000      -0.27460000
C        1.14340000      -1.98870000       0.81610000
C        0.83330000      -0.52840000       1.30990000
C        2.25710000      -0.24120000       0.86010000
N        3.21780000       0.38590000       1.38320000
O        4.40170000       0.23280000       0.62800000
H        0.89780000       2.00110000       0.09210000
H       -0.47050000       1.78020000      -1.01560000
H       -0.75870000       1.89490000       0.73040000
H       -0.92710000      -0.46980000       0.00580000
H        2.66330000      -1.64240000      -0.95400000
H        0.30000000      -2.58480000       0.45860000
H        1.77560000      -2.54920000       1.50570000
H        0.45750000      -0.29090000       2.30210000
H        5.03010000       0.75770000       1.13550000
