18
Properties=species:S:1:pos:R:3 gdb_17007=T pbc="F F F"
C       -0.04570000       1.54770000      -0.34920000
C        1.53010000       1.57390000      -0.36410000
C        1.50460000       0.16850000       0.26940000
C        2.05070000      -0.51820000       1.49380000
C        0.81250000      -1.33050000       1.99720000
C       -0.46120000      -0.55990000       1.51760000
C        0.03850000       0.14410000       0.28330000
O        0.77710000      -0.69130000      -0.61880000
H       -0.46760000       2.29760000       0.32410000
H       -0.55570000       1.59990000      -1.31370000
H        2.01980000       1.64270000      -1.33800000
H        1.93950000       2.33760000       0.30140000
H        2.91700000      -1.16240000       1.31360000
H        2.35190000       0.24050000       2.22640000
H        0.82460000      -2.32190000       1.54040000
H        0.82510000      -1.46780000       3.08160000
H       -1.30900000      -1.23250000       1.35370000
H       -0.77350000       0.18870000       2.25600000
