14
Properties=species:S:1:pos:R:3 gdb_67773=T pbc="F F F"
O       -0.04460000       1.32900000      -0.01400000
C       -0.00900000      -0.04590000      -0.06170000
C        0.93050000      -0.80280000      -0.96340000
C        0.42590000      -2.02560000      -1.12010000
N       -0.78790000      -2.19260000      -0.32610000
C       -1.26630000      -0.79900000      -0.03230000
C       -0.48970000      -0.79890000       1.28300000
C       -0.30480000      -2.25060000       1.09820000
O        0.03310000      -3.19930000       1.73180000
H        0.78110000       1.64950000       0.36550000
H        1.83090000      -0.38660000      -1.39190000
H        0.82720000      -2.88300000      -1.64030000
H       -2.27940000      -0.47860000      -0.23900000
H       -0.62630000      -0.21510000       2.18270000
