21
Properties=species:S:1:pos:R:3 gdb_106631=T pbc="F F F"
O       -0.06420000       1.41200000       0.04710000
C       -0.00850000      -0.00960000      -0.01260000
C       -1.41460000      -0.54490000       0.02980000
C       -2.30930000      -0.48520000       1.30440000
C       -3.09670000      -1.62020000       0.58940000
C       -3.67200000      -0.88010000      -0.63370000
C       -2.40180000      -0.06960000      -1.05960000
C       -1.70130000      -2.08080000       0.07140000
O       -1.55350000      -2.88640000      -1.06700000
H        0.83430000       1.74980000      -0.00980000
H        0.48040000      -0.35050000      -0.94040000
H        0.57060000      -0.41840000       0.83130000
H       -1.78750000      -0.82370000       2.20300000
H       -2.83790000       0.44940000       1.50350000
H       -3.75950000      -2.29730000       1.12850000
H       -4.02890000      -1.56470000      -1.41150000
H       -4.51260000      -0.23460000      -0.36580000
H       -2.54780000       1.01100000      -1.02290000
H       -2.05160000      -0.31590000      -2.06870000
H       -1.12370000      -2.57090000       0.85970000
H       -2.08810000      -2.52150000      -1.77920000
