21
Properties=species:S:1:pos:R:3 gdb_39688=T pbc="F F F"
C       -0.02750000       1.45430000      -0.19610000
O        1.34000000       1.51170000       0.25240000
C        1.42030000       0.07120000       0.33560000
C       -0.07360000      -0.08060000      -0.02350000
C       -0.96560000      -0.59900000       1.09330000
C       -2.47570000      -0.64280000       0.73980000
C       -2.75990000      -2.14600000       0.56620000
C       -1.73260000      -2.75930000       1.51860000
O       -0.57490000      -1.94790000       1.38160000
H       -0.69890000       2.03310000       0.45250000
H       -0.13890000       1.81450000      -1.22710000
H        2.12410000      -0.34150000      -0.39770000
H        1.70520000      -0.27210000       1.33660000
H       -0.26760000      -0.64420000      -0.93970000
H       -0.80040000       0.01700000       1.99080000
H       -3.07170000      -0.23310000       1.56050000
H       -2.70740000      -0.06040000      -0.15590000
H       -3.79020000      -2.41950000       0.80650000
H       -2.55320000      -2.46560000      -0.46020000
H       -2.10320000      -2.74240000       2.55710000
H       -1.45350000      -3.78800000       1.27330000
