16
Properties=species:S:1:pos:R:3 gdb_47003=T pbc="F F F"
O       -0.00600000      -0.05550000      -0.02860000
C       -0.03460000       1.15860000       0.00900000
N       -1.18560000       1.89110000       0.05000000
C       -1.25630000       3.34520000       0.11440000
C        0.14920000       3.92890000      -0.06540000
O        0.59300000       3.77650000      -1.40660000
C        1.42550000       2.61260000      -1.44400000
C        1.23180000       2.02000000      -0.03780000
O        1.05300000       3.20870000       0.74010000
H       -2.03890000       1.35350000       0.09760000
H       -1.90560000       3.73650000      -0.67690000
H       -1.65780000       3.67150000       1.08320000
H        0.18010000       4.98580000       0.21230000
H        1.09700000       1.94280000      -2.24360000
H        2.46850000       2.90340000      -1.61360000
H        2.07770000       1.45340000       0.34610000
