20
Properties=species:S:1:pos:R:3 gdb_119215=T pbc="F F F"
C        0.08490000       1.38490000       0.00960000
O        0.32360000      -0.00230000       0.04290000
C        0.38250000      -0.57940000      -1.24240000
C        0.52050000      -2.08300000      -1.08810000
C        1.39250000      -2.81790000      -2.07240000
N        1.80150000      -2.69290000      -0.69030000
C        2.93840000      -1.84230000      -0.36540000
C       -0.65340000      -2.73420000      -0.55330000
C       -1.64920000      -3.26560000      -0.14020000
H        0.88360000       1.92620000      -0.52270000
H       -0.87340000       1.62140000      -0.47880000
H        0.05080000       1.73440000       1.04400000
H       -0.53670000      -0.36120000      -1.80980000
H        1.22580000      -0.16480000      -1.81590000
H        1.10480000      -3.81130000      -2.40460000
H        1.90010000      -2.20890000      -2.82170000
H        3.11610000      -1.02190000      -1.07730000
H        2.78890000      -1.41160000       0.62730000
H        3.83610000      -2.46820000      -0.34620000
H       -2.51880000      -3.73930000       0.24250000
