18
Properties=species:S:1:pos:R:3 gdb_37460=T pbc="F F F"
C        0.03840000       1.41430000      -0.10870000
C        1.31400000       0.65310000      -0.04720000
C        1.94510000       0.40150000       1.33680000
O        1.63930000       1.45340000       2.25910000
C        0.46070000       1.13220000       2.99550000
C        0.05980000      -0.27310000       2.59520000
C        1.22620000      -0.86990000       1.85400000
C       -0.09950000      -0.78590000       1.15420000
N        0.02730000      -0.05670000      -0.10620000
H       -0.27910000       1.95780000       0.77060000
H       -0.27710000       1.85760000      -1.05000000
H        1.95460000       0.57390000      -0.92270000
H        3.03190000       0.31150000       1.28300000
H        0.69730000       1.14710000       4.06900000
H       -0.31320000       1.89070000       2.82170000
H       -0.47400000      -0.85770000       3.33750000
H        1.76170000      -1.77130000       2.12440000
H       -0.74050000      -1.65680000       1.06880000
