19
Properties=species:S:1:pos:R:3 gdb_93935=T pbc="F F F"
C       -0.04610000       1.47940000       0.03780000
C        0.08940000      -0.02260000       0.09730000
O        0.68490000      -0.51530000      -1.08880000
C        1.24460000      -1.76750000      -0.75280000
C        1.51960000      -1.65260000       0.78800000
O        0.97650000      -0.40070000       1.13860000
C        0.84950000      -2.80950000       1.54150000
C        1.66010000      -4.08820000       1.63660000
O       -0.26160000      -2.69960000       1.99910000
H        0.93510000       1.93170000      -0.12430000
H       -0.71350000       1.76100000      -0.78030000
H       -0.46420000       1.85010000       0.97670000
H       -0.88330000      -0.51650000       0.25800000
H        0.54370000      -2.58710000      -0.97010000
H        2.15460000      -1.91520000      -1.33880000
H        2.59370000      -1.63870000       1.00500000
H        2.51880000      -3.93040000       2.30000000
H        1.04150000      -4.89500000       2.03050000
H        2.06570000      -4.37110000       0.65800000
