18
Properties=species:S:1:pos:R:3 gdb_14433=T pbc="F F F"
C       -0.06940000       1.52260000      -0.00090000
C       -0.02630000       0.02210000      -0.03710000
C        0.72040000      -0.81000000      -1.07610000
C       -0.22860000      -2.02790000      -0.73370000
C        0.44360000      -2.81420000       0.37120000
C        0.45090000      -2.07290000       1.48410000
C       -0.31200000      -0.81450000       1.24600000
C       -1.14580000      -0.99520000       0.00320000
H        0.90340000       1.94070000       0.28480000
H       -0.33320000       1.93890000      -0.98040000
H       -0.80840000       1.88290000       0.72300000
H        0.50900000      -0.42560000      -2.07820000
H        1.79880000      -0.96890000      -0.96290000
H       -0.61950000      -2.59130000      -1.57950000
H        0.97430000      -3.74460000       0.20990000
H        0.95810000      -2.30230000       2.41310000
H       -0.70980000      -0.23520000       2.07200000
H       -2.22180000      -0.87940000      -0.06330000
