21
Properties=species:S:1:pos:R:3 gdb_68243=T pbc="F F F"
C        0.03740000       1.52900000       0.09820000
C        0.06390000       0.01780000       0.06910000
C        0.84100000      -0.79710000      -1.02660000
C        0.75290000      -1.94090000       0.03380000
C        0.89360000      -0.81960000       1.09470000
C       -0.76230000      -2.19280000       0.01860000
O       -1.38990000      -2.45030000       1.29830000
C       -2.00030000      -1.13850000       1.31390000
C       -1.28600000      -0.73340000       0.01010000
H        1.05000000       1.94570000       0.10490000
H       -0.48600000       1.93380000      -0.77600000
H       -0.47930000       1.89850000       0.99190000
H        0.35450000      -0.94640000      -1.99680000
H        1.86290000      -0.43840000      -1.17130000
H        1.41640000      -2.80510000       0.01290000
H        1.91990000      -0.45190000       1.16810000
H        0.48950000      -1.00410000       2.09130000
H       -1.09230000      -2.90420000      -0.74520000
H       -3.09210000      -1.20730000       1.22980000
H       -1.74810000      -0.57230000       2.21950000
H       -1.92330000      -0.39650000      -0.80950000
