17
Properties=species:S:1:pos:R:3 gdb_14648=T pbc="F F F"
C        0.01860000       1.45630000       0.03270000
C        0.00510000       0.00130000      -0.02030000
C        0.01000000      -1.20160000      -0.06530000
C       -0.02080000      -2.65810000      -0.11650000
C       -1.44570000      -3.20080000       0.00960000
O       -1.36000000      -4.62440000      -0.05250000
C       -2.52300000      -5.29600000       0.04180000
N       -2.53050000      -6.55720000      -0.00470000
H        0.92020000       1.82650000       0.53310000
H       -0.00580000       1.89290000      -0.97180000
H       -0.84650000       1.84270000       0.58290000
H        0.40860000      -3.02260000      -1.05730000
H        0.58800000      -3.08780000       0.68800000
H       -1.88960000      -2.88470000       0.96190000
H       -2.07130000      -2.81840000      -0.80660000
H       -3.39970000      -4.64270000       0.15620000
H       -3.48460000      -6.90120000       0.08040000
