11
Properties=species:S:1:pos:R:3 gdb_46184=T pbc="F F F"
O       -0.08600000       0.07790000      -0.29830000
C       -0.04560000       1.21590000       0.00010000
O       -1.00100000       2.03090000       0.50990000
C       -0.12680000       3.19700000       0.56520000
C        1.05470000       2.36300000      -0.01780000
C        2.16730000       2.12690000       0.89210000
N        3.02290000       1.93780000       1.64400000
C        1.49130000       2.74030000      -1.35530000
N        1.79890000       3.04830000      -2.42470000
H       -0.48900000       3.99290000      -0.08440000
H        0.01500000       3.53570000       1.59080000
