6
Properties=species:S:1:pos:R:3 gdb_827=T pbc="F F F"
F        0.01220000       0.06260000      -0.01750000
C       -0.01270000       1.39190000       0.00230000
F        1.23690000       1.84540000      -0.01970000
F       -0.64620000       1.82580000      -1.08310000
C       -0.70760000       1.87080000       1.22400000
N       -1.24680000       2.24240000       2.17220000
