25
Properties=species:S:1:pos:R:3 gdb_114235=T pbc="F F F"
C       -0.24740000       1.48570000       0.02820000
C        0.04050000      -0.01790000      -0.03220000
C        0.79270000      -0.53530000       1.18710000
C        0.04770000      -0.57280000       2.55940000
C        0.62250000      -1.97950000       2.78050000
C        1.46410000      -2.40130000       3.95400000
C        0.13020000      -3.06760000       3.68890000
C       -1.04400000      -2.83680000       4.61410000
C        1.04040000      -2.07000000       1.30720000
H        0.68180000       2.06380000       0.08380000
H       -0.79750000       1.82370000      -0.85550000
H       -0.84650000       1.73930000       0.90970000
H       -0.90440000      -0.57020000      -0.12980000
H        0.62050000      -0.24550000      -0.93680000
H        1.73930000       0.00710000       1.29230000
H        0.30830000       0.19720000       3.29080000
H       -1.04200000      -0.57550000       2.43300000
H        2.37290000      -2.96440000       3.76290000
H        1.53030000      -1.72390000       4.80140000
H        0.18760000      -4.07410000       3.27800000
H       -1.05550000      -1.80760000       4.98780000
H       -1.99780000      -3.01260000       4.10310000
H       -1.00460000      -3.50380000       5.48270000
H        0.33230000      -2.64850000       0.70190000
H        2.05180000      -2.42880000       1.09450000
