20
Properties=species:S:1:pos:R:3 gdb_79735=T pbc="F F F"
C       -0.00650000       1.48980000      -0.02950000
C        0.01930000      -0.02220000      -0.01140000
C       -1.28800000      -0.76490000      -0.35240000
C       -1.44010000      -1.86090000       0.70660000
C       -0.53970000      -3.04160000       0.68290000
N       -0.23940000      -1.89270000       1.56470000
C        0.66480000      -0.85320000       1.09630000
C        1.29660000      -0.75560000      -0.29210000
O        1.32680000      -1.77060000      -1.25520000
H        0.95410000       1.90760000       0.28780000
H       -0.21640000       1.87250000      -1.03530000
H       -0.77840000       1.87920000       0.64440000
H       -2.12530000      -0.06370000      -0.29090000
H       -1.27510000      -1.16920000      -1.36920000
H       -2.39630000      -1.93360000       1.22000000
H       -0.82610000      -3.93970000       1.22460000
H        0.05690000      -3.20130000      -0.20340000
H        1.21470000      -0.37920000       1.90440000
H        2.18510000      -0.12020000      -0.31270000
H        2.04720000      -2.36970000      -1.03100000
