19
Properties=species:S:1:pos:R:3 gdb_92550=T pbc="F F F"
C       -0.20750000       1.51240000      -0.02760000
C        0.01680000       0.00430000       0.01140000
O        0.70790000      -0.33270000      -1.18960000
C        1.08530000      -1.68460000      -1.29380000
C        2.45340000      -1.82760000      -1.97870000
O        3.09770000      -2.17830000      -0.73380000
C        1.81450000      -2.24510000      -0.05370000
C        1.68910000      -1.41770000       1.18050000
C        0.80680000      -0.42250000       1.22780000
H        0.75210000       2.03720000      -0.02830000
H       -0.75540000       1.78770000      -0.93200000
H       -0.78430000       1.83560000       0.84410000
H       -0.96810000      -0.49810000       0.01830000
H        0.26070000      -2.29520000      -1.68520000
H        2.52060000      -2.63750000      -2.71610000
H        2.84130000      -0.89740000      -2.40550000
H        1.55970000      -3.29390000       0.15980000
H        2.29760000      -1.68590000       2.03960000
H        0.64300000       0.14170000       2.14240000
