16
Properties=species:S:1:pos:R:3 gdb_33288=T pbc="F F F"
C        0.05260000      -3.75730000      -0.01720000
C        0.03790000      -2.54950000      -0.01380000
C        0.02130000      -1.19050000      -0.01030000
C        0.00640000       0.02130000      -0.00710000
C       -0.01160000       1.45640000      -0.00320000
C       -0.65610000       2.43640000       1.01810000
N       -0.03650000       3.40800000       0.00230000
C        1.17380000       2.46240000       0.03780000
C       -0.59070000       2.44310000      -1.05700000
H        0.06540000      -4.81890000      -0.01980000
H       -1.74710000       2.47820000       1.06020000
H       -0.20970000       2.49500000       2.01370000
H        1.75420000       2.52290000       0.96160000
H        1.81190000       2.52880000      -0.84670000
H       -0.08260000       2.50790000      -2.02210000
H       -1.67700000       2.48500000      -1.16720000
