16
Properties=species:S:1:pos:R:3 gdb_29502=T pbc="F F F"
O        0.08670000       1.37490000      -0.09950000
C        0.05770000       0.01040000      -0.01430000
C        0.01950000      -0.82060000      -1.12160000
N       -0.00180000      -2.13520000      -0.67300000
C        0.02240000      -2.12650000       0.68720000
C        0.05950000      -0.81620000       1.13350000
C        0.08590000      -0.82990000       2.63770000
C        0.05800000      -2.32380000       2.94010000
C        0.02140000      -3.05180000       1.80280000
H        0.11020000       1.73090000       0.79270000
H        0.00620000      -0.57820000      -2.17050000
H       -0.02990000      -2.94220000      -1.26970000
H        0.98280000      -0.36120000       3.06700000
H       -0.77350000      -0.32210000       3.09820000
H        0.06720000      -2.71800000       3.94740000
H       -0.00400000      -4.13190000       1.73540000
