12
Properties=species:S:1:pos:R:3 gdb_2660=T pbc="F F F"
O        0.03380000       1.26080000       0.66710000
C       -0.01150000       0.11060000      -0.16510000
C       -1.35910000      -0.44610000      -0.15120000
C       -2.46260000      -0.92110000      -0.14960000
C       -3.81010000      -1.48360000      -0.14320000
C       -3.86420000      -2.85100000       0.39190000
N       -3.92000000      -3.92690000       0.80690000
H        0.93890000       1.58870000       0.65590000
H        0.26370000       0.35400000      -1.20420000
H        0.69220000      -0.66490000       0.17800000
H       -4.47900000      -0.85340000       0.45700000
H       -4.23020000      -1.49570000      -1.15710000
