17
Properties=species:S:1:pos:R:3 gdb_68819=T pbc="F F F"
C       -0.03540000       1.51310000       0.05940000
C       -0.00040000       0.02270000       0.08210000
C        1.11270000      -0.87550000      -0.40200000
C        0.58300000      -1.01430000       1.01170000
O        1.32870000      -0.87140000       2.15750000
C       -0.82520000      -1.65920000       0.94940000
O       -1.25320000      -0.67960000      -0.01190000
C       -0.85860000      -3.09240000       0.49190000
O       -1.00140000      -3.45820000      -0.64620000
H        0.95820000       1.91940000       0.26700000
H       -0.35360000       1.87530000      -0.92430000
H       -0.73470000       1.89570000       0.80870000
H        0.91670000      -1.63120000      -1.15720000
H        2.08670000      -0.39660000      -0.44690000
H        2.06940000      -1.48690000       2.12520000
H       -1.35740000      -1.54580000       1.90360000
H       -0.67720000      -3.81750000       1.32150000
