16
Properties=species:S:1:pos:R:3 gdb_124322=T pbc="F F F"
C       -0.11290000       1.50820000       0.03610000
C        0.07400000       0.01810000      -0.05960000
O        1.12660000      -0.55270000      -0.18050000
N       -1.12490000      -0.74820000       0.00210000
C       -1.24540000      -2.10810000      -0.06090000
C       -2.58780000      -2.34300000       0.04150000
C       -3.35020000      -3.62520000       0.03770000
N       -3.22350000      -1.12320000       0.16180000
N       -2.35380000      -0.17250000       0.13850000
H        0.86830000       1.97820000      -0.01880000
H       -0.75470000       1.86490000      -0.77350000
H       -0.61330000       1.77140000       0.97130000
H       -0.38380000      -2.74280000      -0.16900000
H       -3.91900000      -3.74330000       0.96530000
H       -4.06790000      -3.64980000      -0.78840000
H       -2.67780000      -4.47990000      -0.06500000
