19
Properties=species:S:1:pos:R:3 gdb_116933=T pbc="F F F"
C       -0.28880000       1.42790000      -0.25290000
O       -0.33250000       0.04060000      -0.49420000
C        0.96180000      -0.52520000      -0.56910000
C        0.87460000      -1.95460000      -0.82910000
C        0.82860000      -3.13740000      -1.05090000
C        0.75200000      -4.56410000      -1.30510000
C       -0.61930000      -5.25900000      -1.07090000
C       -0.51800000      -5.64350000      -2.55880000
O        0.71770000      -4.91290000      -2.71500000
H        0.21000000       1.66310000       0.70110000
H        0.23740000       1.96790000      -1.05630000
H       -1.32160000       1.78020000      -0.20800000
H        1.54900000      -0.04110000      -1.36930000
H        1.51310000      -0.34970000       0.37170000
H        1.58950000      -5.07300000      -0.80870000
H       -0.60530000      -6.08130000      -0.35500000
H       -1.42650000      -4.56980000      -0.82480000
H       -0.38570000      -6.71370000      -2.76000000
H       -1.30670000      -5.25340000      -3.21200000
