17
Properties=species:S:1:pos:R:3 gdb_61091=T pbc="F F F"
C       -0.48450000       0.94360000       1.13890000
C        0.23450000       0.45330000      -0.13260000
N        1.61210000       0.02280000       0.13060000
C        1.82590000      -1.03580000       0.76860000
C        3.06890000      -1.77560000       1.21210000
C        2.05390000      -2.78800000       1.78420000
O        0.95070000      -1.95170000       1.30770000
C       -0.56300000      -0.57610000      -0.82720000
N       -1.18960000      -1.36390000      -1.39480000
H        0.12330000       1.71920000       1.61140000
H       -1.46230000       1.36290000       0.88810000
H       -0.62320000       0.12030000       1.84200000
H        0.30770000       1.29600000      -0.82930000
H        3.70070000      -2.13350000       0.39800000
H        3.68040000      -1.24510000       1.94340000
H        2.02630000      -3.76960000       1.30750000
H        2.02200000      -2.88770000       2.87100000
