16
Properties=species:S:1:pos:R:3 gdb_124207=T pbc="F F F"
C        1.42160000      -0.44890000       0.22060000
C        0.02430000       0.10550000       0.12980000
N       -0.14570000       1.36980000       0.21240000
N       -1.00920000      -0.80570000      -0.04120000
C       -1.01340000      -2.18570000      -0.15020000
C       -0.03740000      -3.16150000      -0.13390000
N       -0.75010000      -4.31160000      -0.29230000
N       -2.05850000      -4.08280000      -0.39980000
N       -2.22740000      -2.79280000      -0.31410000
H        2.10620000       0.38710000       0.35270000
H        1.52290000      -1.13330000       1.06940000
H        1.69240000      -0.99400000      -0.68980000
H       -1.13330000       1.62500000       0.13710000
H       -1.94070000      -0.41820000      -0.10000000
H        1.03050000      -3.15590000      -0.03080000
H       -0.40800000      -5.25830000      -0.33510000
