19
Properties=species:S:1:pos:R:3 gdb_90345=T pbc="F F F"
O        0.09440000       1.42810000       0.08840000
C        0.03930000       0.00300000       0.03350000
C       -1.42470000      -0.56590000      -0.02540000
C       -1.47330000      -1.31650000      -1.32860000
C       -2.33190000      -2.02430000      -2.07170000
C       -1.66460000      -2.54990000      -3.32970000
C       -0.18910000      -2.03270000      -3.24270000
C       -0.15420000      -1.26030000      -1.94830000
C        0.71390000      -0.56100000      -1.20460000
H       -0.16660000       1.75220000      -0.78130000
H        0.54150000      -0.31020000       0.95590000
H       -1.63440000      -1.21920000       0.82790000
H       -2.13820000       0.26240000       0.02640000
H       -3.37330000      -2.22240000      -1.84460000
H       -1.70800000      -3.64530000      -3.38290000
H       -2.16850000      -2.18750000      -4.23480000
H        0.52890000      -2.85890000      -3.23880000
H        0.06970000      -1.40170000      -4.09890000
H        1.75680000      -0.36080000      -1.42050000
