17
Properties=species:S:1:pos:R:3 gdb_46149=T pbc="F F F"
O        0.03900000      -0.05940000       0.21110000
C       -0.01770000       1.12890000       0.00700000
C       -1.32620000       1.90220000      -0.06820000
C       -1.28030000       3.05670000      -1.08290000
C        0.02710000       3.85210000      -0.92390000
O        1.14470000       2.98680000      -1.11800000
C        1.24460000       1.98370000      -0.12220000
C        0.12320000       4.94890000      -1.88070000
C        0.16040000       5.85790000      -2.66430000
H       -2.14060000       1.20150000      -0.26690000
H       -1.49380000       2.31240000       0.93920000
H       -1.31270000       2.66970000      -2.10620000
H       -2.14030000       3.72060000      -0.95360000
H        0.06920000       4.27050000       0.09870000
H        1.45080000       2.43250000       0.86780000
H        2.08670000       1.34300000      -0.38900000
H        0.20740000       6.66210000      -3.35670000
