22
Properties=species:S:1:pos:R:3 gdb_60863=T pbc="F F F"
C        0.76100000       1.31430000       0.11260000
N        0.00600000       0.07060000       0.09840000
C       -0.94180000      -0.13240000       1.05800000
O       -1.17120000       0.60650000       1.99590000
C        0.11820000      -0.80870000      -1.06600000
C       -0.72950000      -0.28220000      -2.23200000
C        1.57360000      -1.15750000      -1.50640000
C        1.12520000      -2.62860000      -1.71090000
C       -0.11020000      -2.33410000      -0.82100000
H        1.83550000       1.11990000       0.03940000
H        0.47210000       1.97440000      -0.71430000
H        0.54410000       1.81670000       1.05500000
H       -1.49590000      -1.07540000       0.90120000
H       -0.42640000       0.73080000      -2.51470000
H       -0.62480000      -0.91840000      -3.11630000
H       -1.78790000      -0.25690000      -1.95330000
H        1.97830000      -0.61600000      -2.36500000
H        2.26960000      -1.06970000      -0.66850000
H        0.85500000      -2.84560000      -2.74710000
H        1.80830000      -3.40570000      -1.36450000
H        0.08130000      -2.60360000       0.22000000
H       -1.07540000      -2.74690000      -1.12400000
