19
Properties=species:S:1:pos:R:3 gdb_113989=T pbc="F F F"
O        0.51750000       0.50060000       0.61830000
C       -0.12590000       0.13480000      -0.58860000
C       -1.50460000      -0.44400000      -0.34630000
C       -2.04330000      -1.57830000      -1.20060000
C       -1.63220000      -1.82130000       0.23730000
N       -0.44280000      -2.55990000       0.60590000
C       -0.70050000      -3.99390000       0.74720000
C        0.52510000      -4.71380000       1.10170000
N        1.49600000      -5.28410000       1.35840000
H        0.52080000      -0.28140000       1.18380000
H       -0.19920000       1.04900000      -1.18670000
H        0.48740000      -0.56910000      -1.17790000
H       -2.22610000       0.28310000       0.01440000
H       -3.09500000      -1.58250000      -1.46530000
H       -1.38700000      -1.96240000      -1.97700000
H       -2.42820000      -1.96980000       0.96190000
H        0.28570000      -2.42840000      -0.08800000
H       -1.43280000      -4.14090000       1.55020000
H       -1.12660000      -4.46050000      -0.15740000
