18
Properties=species:S:1:pos:R:3 gdb_6524=T pbc="F F F"
C       -0.09440000       1.47510000      -0.06470000
C       -0.00940000      -0.03150000       0.08720000
C       -1.12600000      -0.77700000      -0.61520000
O        1.29220000      -0.60270000      -0.06140000
C        0.72580000      -0.64010000       1.24900000
C        1.41060000       0.17890000       2.32680000
C        0.31480000      -2.00500000       1.74160000
O        0.22720000      -3.00020000       1.07000000
H        0.76960000       1.99000000       0.35440000
H       -0.14850000       1.72730000      -1.12930000
H       -1.00150000       1.86050000       0.41250000
H       -1.11800000      -0.51540000      -1.67880000
H       -1.00470000      -1.85510000      -0.52550000
H       -2.10040000      -0.48400000      -0.20970000
H        1.73410000       1.14980000       1.95520000
H        0.74130000       0.33820000       3.17900000
H        2.29780000      -0.34890000       2.69400000
H        0.09370000      -2.02850000       2.83390000
