16
Properties=species:S:1:pos:R:3 gdb_7510=T pbc="F F F"
C       -0.02800000       1.48080000       0.05400000
C       -0.03290000       0.02550000       0.03950000
C       -0.03770000      -1.18010000       0.03520000
C       -0.01460000      -2.61760000      -0.00580000
O        0.87380000      -3.19670000      -0.92700000
C       -0.32170000      -3.41800000       1.25900000
C       -1.31610000      -3.38040000       0.13620000
O       -2.50180000      -2.69460000       0.37090000
H        0.87400000       1.87430000       0.53590000
H       -0.06970000       1.89140000      -0.96100000
H       -0.89210000       1.86950000       0.60420000
H        1.76920000      -2.98480000      -0.63940000
H        0.25120000      -4.32710000       1.40190000
H       -0.57650000      -2.86050000       2.15240000
H       -1.38890000      -4.26310000      -0.49850000
H       -2.64340000      -2.08280000      -0.36030000
