23
Properties=species:S:1:pos:R:3 gdb_114515=T pbc="F F F"
C       -0.25070000       1.68710000       0.68080000
C       -0.05640000       0.16680000       0.66780000
C       -1.30260000      -0.56460000       0.17320000
C       -1.67380000      -0.46470000      -1.34430000
C       -1.68620000      -2.00780000      -1.44660000
C       -0.29880000      -2.62850000      -1.77800000
C       -0.10170000      -2.94490000      -0.26460000
O        1.09560000      -2.56920000       0.37980000
C       -1.35970000      -2.12680000       0.09210000
H        0.65100000       2.20040000       1.02960000
H       -0.48270000       2.06980000      -0.31960000
H       -1.07550000       1.97710000       1.34230000
H        0.80440000      -0.09670000       0.04620000
H        0.19110000      -0.18450000       1.67660000
H       -2.15170000      -0.23020000       0.78100000
H       -2.64240000       0.00710000      -1.52970000
H       -0.93070000       0.02650000      -1.98180000
H       -2.55270000      -2.48480000      -1.90450000
H       -0.30300000      -3.49930000      -2.43880000
H        0.42030000      -1.89980000      -2.16450000
H       -0.31620000      -4.00850000      -0.07970000
H        1.79300000      -3.16600000       0.09010000
H       -2.02740000      -2.59260000       0.81900000
