13
Properties=species:S:1:pos:R:3 gdb_21690=T pbc="F F F"
N        0.07360000       1.31880000      -0.02260000
C       -0.00310000      -0.03210000       0.02700000
N       -1.18000000      -0.58890000       0.07480000
O       -1.21460000      -1.98890000       0.18360000
C       -0.08510000      -2.69230000       0.22420000
C        1.15510000      -2.16890000       0.15610000
C        1.30230000      -0.74470000       0.03200000
N        2.36380000      -0.02640000      -0.08180000
H        0.98430000       1.68660000      -0.25460000
H       -0.75640000       1.84830000      -0.22650000
H       -0.30050000      -3.75160000       0.31640000
H        2.02160000      -2.81770000       0.18870000
H        3.20290000      -0.60790000      -0.07760000
