14
Properties=species:S:1:pos:R:3 gdb_12612=T pbc="F F F"
O        0.29880000       1.29270000      -0.39830000
C        0.02140000      -0.01990000      -0.03880000
C        0.63850000      -0.44150000       1.28540000
N        1.71160000       0.10820000       1.69120000
N       -0.17140000      -1.41000000       1.82880000
C       -1.50620000      -1.46160000       1.24240000
C       -1.45980000      -0.35840000       0.16520000
O       -2.41100000       0.12350000      -0.37810000
H        1.08040000       1.53290000       0.12530000
H        0.37440000      -0.73940000      -0.80610000
H        2.01060000      -0.21290000       2.61170000
H       -0.00340000      -1.75210000       2.76170000
H       -1.73110000      -2.43340000       0.78410000
H       -2.30090000      -1.23550000       1.96200000
