18
Properties=species:S:1:pos:R:3 gdb_17175=T pbc="F F F"
C       -0.05930000       1.55650000       0.07140000
C        0.00480000       0.02460000       0.08580000
C        0.78370000      -0.50730000       1.24890000
O        0.32590000      -0.19050000       2.60860000
C        1.51580000      -1.00570000       2.80130000
C        1.21980000      -1.96900000       1.61300000
C        2.62910000      -1.77100000       1.01490000
C        2.30830000      -0.38480000       1.61320000
H        0.93880000       1.99180000      -0.04090000
H       -0.67870000       1.91410000      -0.75610000
H       -0.48370000       1.93020000       1.00700000
H       -1.00770000      -0.39510000       0.13010000
H        0.46190000      -0.35280000      -0.83770000
H        1.83970000      -1.22770000       3.81770000
H        0.57920000      -2.85110000       1.63240000
H        3.44150000      -2.32940000       1.48810000
H        2.71400000      -1.82930000      -0.07390000
H        2.90430000       0.52770000       1.63460000
