14
Properties=species:S:1:pos:R:3 gdb_16590=T pbc="F F F"
O       -0.18030000       1.39570000       0.10090000
C       -0.09790000       0.00860000      -0.02730000
C       -1.33200000      -0.79040000       0.01620000
C       -0.45790000      -0.72770000      -1.30940000
C       -1.64310000      -0.10800000      -1.96310000
O       -2.00070000      -0.01640000      -3.10730000
C       -2.47970000      -0.02040000      -0.65650000
O       -3.65410000      -0.78930000      -0.77490000
H        0.53260000       1.79080000      -0.41240000
H        0.76040000      -0.44240000       0.47250000
H       -1.48180000      -1.65190000       0.65260000
H        0.21240000      -1.45120000      -1.75840000
H       -2.67370000       0.97410000      -0.24230000
H       -4.01650000      -0.61070000      -1.65160000
