13
Properties=species:S:1:pos:R:3 gdb_133429=T pbc="F F F"
F        0.04170000       0.07240000      -0.16360000
C        0.00800000       1.38860000      -0.01120000
N       -1.12450000       1.95890000       0.04730000
N       -1.12640000       3.30650000       0.20400000
C       -0.00670000       4.12840000       0.30700000
N        0.00830000       5.39370000       0.45380000
N        1.18210000       3.42170000       0.23320000
C        1.31820000       2.05430000       0.07530000
N        2.46670000       1.50620000       0.01930000
H       -2.04250000       3.71880000       0.24520000
H       -0.92880000       5.78670000       0.49290000
H        2.02740000       3.97080000       0.30260000
H        2.36620000       0.49980000      -0.09830000
