19
Properties=species:S:1:pos:R:3 gdb_14735=T pbc="F F F"
C       -0.22360000       1.27770000       0.91500000
C        0.60430000       0.12590000       0.33520000
N        0.69950000      -1.11850000       1.08200000
C        0.08350000      -1.26220000       2.16720000
O        0.12980000      -2.45290000       2.81520000
C       -0.24920000      -2.44940000       4.18890000
C        0.98580000      -2.28190000       5.06950000
O        1.64780000      -1.05640000       4.81550000
H        0.15680000       1.60470000       1.88880000
H       -0.17990000       2.13560000       0.23730000
H       -1.27740000       1.00450000       1.03510000
H        0.21990000      -0.12950000      -0.66140000
H        1.63210000       0.47220000       0.16270000
H       -0.53710000      -0.51260000       2.67250000
H       -0.96440000      -1.63990000       4.38620000
H       -0.73920000      -3.40790000       4.38750000
H        0.68020000      -2.26840000       6.12190000
H        1.65590000      -3.14120000       4.92480000
H        2.09440000      -1.13950000       3.96630000
