24
Properties=species:S:1:pos:R:3 gdb_118288=T pbc="F F F"
C       -0.13700000       1.55880000       0.04610000
C       -0.18390000       0.03280000      -0.07600000
C        0.77130000      -0.50440000      -1.14860000
C        0.83250000      -2.03880000      -1.25930000
C       -0.50240000      -2.65760000      -1.69180000
C        1.96890000      -2.43200000      -2.22300000
N        2.22470000      -3.86290000      -2.27860000
C        2.04180000      -4.61860000      -3.39460000
O        1.64690000      -4.20970000      -4.46590000
H        0.86870000       1.90540000       0.30900000
H       -0.41420000       2.03960000      -0.89860000
H       -0.82550000       1.91890000       0.81680000
H        0.06880000      -0.42030000       0.89220000
H       -1.21080000      -0.27870000      -0.29940000
H        0.49160000      -0.08610000      -2.12630000
H        1.78100000      -0.12480000      -0.93720000
H        1.09070000      -2.43480000      -0.26410000
H       -0.82490000      -2.25000000      -2.65680000
H       -0.41470000      -3.74170000      -1.80410000
H       -1.29210000      -2.46310000      -0.96130000
H        1.72470000      -2.12970000      -3.24510000
H        2.89120000      -1.91220000      -1.93320000
H        2.56030000      -4.32620000      -1.44870000
H        2.30200000      -5.68120000      -3.21340000
