12
Properties=species:S:1:pos:R:3 gdb_33271=T pbc="F F F"
N        0.06940000      -6.27970000      -0.06940000
C        0.06170000      -5.11630000      -0.04970000
C        0.05190000      -3.75760000      -0.02580000
C        0.04180000      -2.54180000      -0.00320000
C        0.03050000      -1.19240000       0.02250000
C        0.02460000       0.02010000       0.05550000
C       -0.01040000       1.45310000       0.06550000
C        0.51870000       2.22670000       1.21160000
O        1.24850000       2.13810000      -0.00220000
H       -0.80020000       1.90260000      -0.53510000
H        0.07500000       3.19660000       1.43040000
H        0.94350000       1.69140000       2.05790000
