11
Properties=species:S:1:pos:R:3 gdb_99=T pbc="F F F"
O        0.07720000       1.41740000      -0.14440000
C        0.01680000       0.02480000       0.03230000
C        0.11190000      -0.54390000       1.47000000
O       -1.16390000      -1.20090000       1.32440000
C       -1.41930000      -0.52040000       0.07750000
H        1.00020000       1.67890000      -0.21700000
H        0.66040000      -0.50380000      -0.68180000
H        0.91810000      -1.25390000       1.68880000
H        0.09150000       0.24430000       2.23500000
H       -2.16140000       0.28180000       0.18220000
H       -1.72870000      -1.20940000      -0.71550000
