17
Properties=species:S:1:pos:R:3 gdb_26514=T pbc="F F F"
C       -0.04040000       1.56340000       0.08160000
C        0.00320000       0.06910000       0.07960000
C       -0.81160000      -0.86380000       0.93960000
C        0.71260000      -0.94550000       0.98290000
C        1.16300000      -1.62940000      -0.29000000
C        1.46210000      -2.68790000      -1.10800000
N        1.03510000      -2.38730000      -2.39180000
C        0.42240000      -1.21920000      -2.33750000
N        0.53840000      -0.69340000      -1.08290000
H        0.91710000       1.98600000      -0.23750000
H       -0.82160000       1.93750000      -0.59000000
H       -0.26460000       1.93190000       1.08670000
H       -1.28470000      -0.39900000       1.80160000
H       -1.37810000      -1.67230000       0.48840000
H        1.28880000      -0.75470000       1.87710000
H        1.97350000      -3.61300000      -0.89440000
H       -0.02140000      -0.70290000      -3.17460000
