21
Properties=species:S:1:pos:R:3 gdb_72462=T pbc="F F F"
C        0.02600000       1.51050000       0.04310000
C       -0.00870000      -0.00770000      -0.02380000
C        0.73900000      -0.60350000      -1.26090000
C        1.60570000      -1.74340000      -0.66490000
C        0.99990000      -1.87340000       0.74940000
O        0.73170000      -0.51730000       1.09930000
C       -0.29310000      -2.65980000       0.71270000
C       -1.42870000      -2.03710000       0.40320000
C       -1.44720000      -0.56260000       0.08230000
H        1.05840000       1.86930000       0.00020000
H       -0.52900000       1.94580000      -0.79420000
H       -0.42310000       1.86550000       0.97550000
H        0.03640000      -0.97250000      -2.01200000
H        1.36000000       0.15720000      -1.74030000
H        1.55190000      -2.66970000      -1.24190000
H        2.65530000      -1.44420000      -0.59250000
H        1.69700000      -2.27510000       1.48960000
H       -0.25890000      -3.72560000       0.91870000
H       -2.37460000      -2.57210000       0.38120000
H       -2.00230000      -0.01660000       0.85840000
H       -1.98560000      -0.38320000      -0.85800000
