16
Properties=species:S:1:pos:R:3 gdb_50252=T pbc="F F F"
O       -0.69970000       0.88850000      -0.46610000
C        0.21600000       0.93930000       0.31510000
C        1.37400000       1.90040000       0.19850000
C        1.28270000       3.02240000      -0.86880000
C        1.40520000       4.09400000       0.25050000
N        0.14720000       4.50330000       0.87710000
C        0.13040000       3.49810000       1.82670000
O       -0.67620000       3.16800000       2.65210000
C        1.50300000       2.97690000       1.34170000
H        0.26150000       0.26150000       1.19560000
H        2.29390000       1.30950000       0.13130000
H        2.12040000       3.02600000      -1.56890000
H        0.34590000       3.03570000      -1.42820000
H        2.14190000       4.88920000       0.13670000
H       -0.63180000       5.02160000       0.49270000
H        2.30870000       2.87950000       2.06530000
