16
Properties=species:S:1:pos:R:3 gdb_592=T pbc="F F F"
C       -0.13230000       1.33670000      -0.09410000
O       -0.16160000      -0.06610000      -0.18000000
C        0.83030000      -0.58150000      -1.04480000
C        0.76020000      -2.08330000      -1.03910000
C       -0.23330000      -2.79350000      -1.92030000
C        1.23820000      -2.85410000      -2.24420000
H        0.83410000       1.70590000       0.28680000
H       -0.31490000       1.81250000      -1.07160000
H       -0.92220000       1.64080000       0.59740000
H        0.68080000      -0.20070000      -2.07130000
H        1.82900000      -0.23960000      -0.71980000
H        0.95190000      -2.52950000      -0.06770000
H       -0.71480000      -3.68520000      -1.53530000
H       -0.86890000      -2.18400000      -2.55380000
H        1.59300000      -2.28980000      -3.10070000
H        1.76890000      -3.78480000      -2.07880000
