21
Properties=species:S:1:pos:R:3 gdb_122645=T pbc="F F F"
C       -0.05720000       1.31570000      -0.21960000
O       -0.02400000      -0.08460000      -0.10010000
C       -1.31050000      -0.65370000       0.01860000
C       -1.16230000      -2.16720000       0.10380000
C       -2.51160000      -2.85310000       0.23240000
O       -3.35860000      -2.66060000      -0.93240000
C       -3.32820000      -4.06450000      -1.25700000
C       -2.54560000      -4.38800000       0.03670000
O       -1.27210000      -4.96960000      -0.09160000
H        0.97500000       1.66260000      -0.31360000
H       -0.62300000       1.63850000      -1.10840000
H       -0.51230000       1.79280000       0.66390000
H       -1.81990000      -0.26410000       0.91870000
H       -1.93590000      -0.38590000      -0.84800000
H       -0.63930000      -2.53300000      -0.78400000
H       -0.54390000      -2.42720000       0.97040000
H       -3.03160000      -2.50580000       1.13610000
H       -4.33560000      -4.48800000      -1.34990000
H       -2.75570000      -4.27090000      -2.17060000
H       -3.14700000      -4.90550000       0.79410000
H       -1.37420000      -5.92370000      -0.15530000
