15
Properties=species:S:1:pos:R:3 gdb_20968=T pbc="F F F"
C       -0.07980000       1.42450000       0.03520000
N        0.19330000      -0.00090000      -0.00730000
C        0.08080000      -0.74850000       1.23700000
C        0.06900000      -0.64050000      -1.19550000
C       -0.11370000      -0.15560000      -2.48210000
N       -0.11250000      -1.23960000      -3.30410000
N        0.03380000      -2.31830000      -2.70380000
O        0.15770000      -1.95710000      -1.23480000
H        0.34320000       1.83860000       0.95370000
H        0.39950000       1.92230000      -0.81140000
H       -1.15580000       1.65100000       0.01380000
H       -0.96220000      -0.84140000       1.57290000
H        0.49180000      -1.74810000       1.10050000
H        0.65090000      -0.23350000       2.01520000
H       -0.24520000       0.84590000      -2.84800000
