18
Properties=species:S:1:pos:R:3 gdb_76438=T pbc="F F F"
C        0.08060000       1.56770000      -0.34030000
C        0.02630000       0.09270000      -0.03580000
O       -1.10680000      -0.58210000      -0.55370000
C       -2.27020000      -0.40850000       0.11460000
N       -3.33270000      -0.91900000      -0.33490000
C        1.27550000      -0.76150000      -0.07870000
O        2.51560000      -0.17010000      -0.29330000
C        0.58460000      -0.49500000       1.24520000
O        1.23170000       0.40260000       2.11080000
H       -0.03520000       1.71910000      -1.41750000
H       -0.71660000       2.11290000       0.17500000
H        1.03600000       1.99340000      -0.03300000
H       -2.16270000       0.18110000       1.03400000
H       -4.10880000      -0.70660000       0.28870000
H        1.18180000      -1.74360000      -0.53180000
H        2.72160000       0.33190000       0.50740000
H        0.01900000      -1.29150000       1.72380000
H        1.76360000      -0.11350000       2.72730000
