13
Properties=species:S:1:pos:R:3 gdb_1215=T pbc="F F F"
N       -0.18140000       1.28850000       0.22700000
C       -0.04990000      -0.08910000       0.12490000
O        0.83760000      -0.71010000       0.67780000
N       -1.02700000      -0.68200000      -0.65590000
C       -1.16820000      -2.13380000      -0.64010000
C       -2.37780000      -2.58450000       0.04580000
C       -3.39200000      -2.93400000       0.58750000
H        0.65020000       1.72980000       0.58930000
H       -0.60340000       1.77930000      -0.54700000
H       -1.87750000      -0.16060000      -0.80440000
H       -1.16340000      -2.52200000      -1.66640000
H       -0.27410000      -2.51660000      -0.13840000
H       -4.27600000      -3.25460000       1.08080000
