19
Properties=species:S:1:pos:R:3 gdb_102707=T pbc="F F F"
O       -0.07280000       1.45680000      -0.13190000
C        0.01360000       0.04390000      -0.05800000
C       -1.36070000      -0.64480000       0.00110000
C       -2.22060000      -0.22990000      -1.20220000
O       -3.46280000      -0.91320000      -1.28620000
C       -1.19130000      -2.16570000       0.10640000
O       -2.33150000      -2.76860000       0.72590000
C       -3.14600000      -3.53180000      -0.03300000
O       -4.15300000      -4.00740000       0.39680000
H       -0.42260000       1.77790000       0.70560000
H        0.54830000      -0.26390000      -0.96480000
H        0.62360000      -0.27630000       0.80070000
H       -1.86090000      -0.32260000       0.92740000
H       -2.35470000       0.85890000      -1.19730000
H       -1.68810000      -0.48170000      -2.12780000
H       -3.99720000      -0.67430000      -0.52150000
H       -1.01930000      -2.61000000      -0.88300000
H       -0.33330000      -2.41350000       0.74060000
H       -2.76940000      -3.67480000      -1.06130000
