17
Properties=species:S:1:pos:R:3 gdb_37274=T pbc="F F F"
O       -0.02310000       1.43400000       0.04730000
C        1.26970000       0.81270000       0.04010000
C        0.03800000       0.00090000       0.04810000
C       -0.04340000      -0.65390000      -1.33330000
C       -0.22310000       0.31830000      -2.51130000
C        1.05810000       1.16260000      -2.51960000
C        1.01070000      -0.16670000      -3.23280000
C        1.43100000      -0.79100000      -1.85810000
C        1.89120000       0.62100000      -1.34580000
H        1.87930000       1.00160000       0.92010000
H       -0.36810000      -0.47950000       0.93460000
H       -0.65360000      -1.55600000      -1.39010000
H       -1.14490000       0.70480000      -2.92490000
H        1.06270000       2.15970000      -2.93910000
H        1.18620000      -0.44310000      -4.26100000
H        2.02380000      -1.68890000      -1.69380000
H        2.96020000       0.82560000      -1.41330000
