18
Properties=species:S:1:pos:R:3 gdb_61038=T pbc="F F F"
C        0.14140000       1.31420000      -0.37110000
C       -0.03140000      -0.15560000       0.02010000
C        0.62870000      -0.48250000       1.36550000
O        1.47960000       0.19920000       1.86890000
N       -1.40750000      -0.60520000       0.04250000
C       -2.32490000      -1.07100000      -1.00820000
C       -3.45520000      -1.03890000       0.05980000
C       -2.36980000      -0.50380000       1.02150000
O       -2.30540000      -0.12850000       2.16350000
H        1.19880000       1.58510000      -0.34170000
H       -0.24480000       1.49620000      -1.37770000
H       -0.39320000       1.95560000       0.33420000
H        0.49590000      -0.79560000      -0.70600000
H        0.28840000      -1.43760000       1.81730000
H       -2.45250000      -0.36380000      -1.83450000
H       -2.07370000      -2.05860000      -1.40810000
H       -4.26690000      -0.33580000      -0.13300000
H       -3.86790000      -2.00930000       0.33980000
