16
Properties=species:S:1:pos:R:3 gdb_12682=T pbc="F F F"
O        0.19320000       1.34250000       0.26040000
C        0.05940000      -0.03720000       0.03290000
C       -1.39920000      -0.54110000      -0.09650000
C       -1.25450000      -1.93070000      -0.73780000
C       -0.05340000      -1.78390000      -1.66680000
O        0.21690000      -2.46040000      -2.62680000
C        0.73720000      -0.52120000      -1.26080000
O        0.49970000       0.47520000      -2.25380000
H        0.11940000       1.76790000      -0.60340000
H        0.53520000      -0.54390000       0.88200000
H       -1.91690000      -0.54990000       0.86440000
H       -1.94430000       0.13110000      -0.76780000
H       -0.99750000      -2.68840000       0.01610000
H       -2.13040000      -2.29900000      -1.27600000
H        1.81000000      -0.72350000      -1.15260000
H        0.72100000       0.09160000      -3.11030000
