18
Properties=species:S:1:pos:R:3 gdb_64135=T pbc="F F F"
C       -0.08550000       1.45110000      -0.17600000
C        0.02420000      -0.05680000       0.04710000
C       -1.32900000      -0.70650000       0.31870000
C        0.81700000      -0.75970000      -1.08070000
O        2.15880000      -0.78550000      -0.59210000
C        2.02460000      -0.96510000       0.78790000
O        0.88930000      -0.25860000       1.20300000
C        1.88690000      -2.41850000       1.12640000
N        1.78560000      -3.53870000       1.38980000
H        0.89450000       1.87360000      -0.41480000
H       -0.77300000       1.67240000      -0.99870000
H       -0.46070000       1.93910000       0.72740000
H       -1.97850000      -0.61990000      -0.55880000
H       -1.20860000      -1.76620000       0.55860000
H       -1.82650000      -0.21650000       1.15990000
H        0.45200000      -1.78100000      -1.25270000
H        0.81640000      -0.20900000      -2.02220000
H        2.91610000      -0.57040000       1.28480000
