15
Properties=species:S:1:pos:R:3 gdb_127165=T pbc="F F F"
C        0.00580000       1.46060000      -0.07070000
N        0.00140000      -0.00200000       0.00160000
C       -0.02220000      -0.66230000       1.23090000
N       -0.04070000      -0.01720000       2.32330000
C        0.02080000      -0.73520000      -1.14490000
N        0.02050000      -2.03850000      -1.27660000
C        0.04500000      -2.16360000      -2.63830000
N        0.05980000      -1.05470000      -3.32380000
O        0.04330000      -0.06680000      -2.30230000
H        0.90460000       1.81350000      -0.58230000
H       -0.87280000       1.81730000      -0.61380000
H       -0.01160000       1.82860000       0.95300000
H       -0.02230000      -1.74590000       1.10550000
H       -0.05640000      -0.66010000       3.11150000
H        0.05220000      -3.12080000      -3.14030000
