17
Properties=species:S:1:pos:R:3 gdb_81098=T pbc="F F F"
O        0.15870000       1.41210000      -0.18620000
C        0.05340000       0.03510000      -0.03560000
C        0.01780000      -0.64490000       1.36900000
C       -1.45270000      -0.15290000       1.52130000
C       -1.37160000      -0.67510000       0.06080000
C       -2.44100000      -0.68320000      -0.96990000
O       -3.50130000      -0.11760000      -0.84590000
C       -0.59270000      -1.88810000       0.64100000
O        0.16540000      -2.62200000      -0.28180000
H       -0.40830000       1.85920000       0.45070000
H        0.73410000      -0.41030000      -0.75730000
H        0.79780000      -0.63850000       2.13180000
H       -2.09670000      -0.71690000       2.20030000
H       -1.61960000       0.91620000       1.66020000
H       -2.18890000      -1.24210000      -1.89840000
H       -1.19780000      -2.53950000       1.28380000
H        0.70500000      -3.25540000       0.20150000
