16
Properties=species:S:1:pos:R:3 gdb_5530=T pbc="F F F"
C        0.06170000       1.58420000       0.33840000
C        0.00900000       0.10040000      -0.07010000
C       -1.36550000      -0.47880000      -0.10280000
C       -2.16990000      -0.89940000      -1.13380000
O       -1.85380000      -0.88540000      -2.45160000
N       -3.37850000      -1.35790000      -0.69480000
C       -3.33590000      -1.22430000       0.61640000
N       -2.15340000      -0.70050000       1.02390000
H        1.09210000       1.95390000       0.33350000
H       -0.52760000       2.19710000      -0.34980000
H       -0.34070000       1.73760000       1.34590000
H        0.43280000      -0.01720000      -1.07210000
H        0.65400000      -0.48230000       0.60300000
H       -2.61510000      -1.25690000      -2.91260000
H       -4.12400000      -1.49010000       1.30390000
H       -1.88230000      -0.51300000       1.97430000
