15
Properties=species:S:1:pos:R:3 gdb_9658=T pbc="F F F"
O        0.18640000       0.65710000       0.78540000
C       -0.19650000       0.20530000      -0.49740000
C       -1.54300000      -0.49700000      -0.48180000
C       -1.78390000      -1.70230000      -1.35380000
C       -1.60100000      -1.87320000       0.14540000
O       -0.38110000      -2.34820000       0.64140000
C       -2.75370000      -2.23580000       0.94090000
N       -3.66700000      -2.55380000       1.57560000
H        0.33790000      -0.12980000       1.32140000
H       -0.26280000       1.09420000      -1.13320000
H        0.56030000      -0.45900000      -0.93550000
H       -2.39380000       0.14270000      -0.27180000
H       -2.76910000      -1.86960000      -1.77270000
H       -0.95450000      -2.05060000      -1.96070000
H       -0.36420000      -3.30930000       0.56720000
