21
Properties=species:S:1:pos:R:3 gdb_40629=T pbc="F F F"
C        0.98750000       1.13650000       0.10950000
O        1.68110000      -0.07850000      -0.17290000
C        0.25720000      -0.13360000      -0.00270000
C       -0.22630000      -0.86670000       1.21560000
C       -1.76870000      -0.86010000       1.48780000
C       -1.87080000      -2.03840000       0.47620000
C       -0.48040000      -2.40540000       1.07110000
C       -0.85240000      -2.78300000       2.51870000
C       -1.83660000      -1.60400000       2.83700000
H        1.17260000       1.56160000       1.09570000
H        0.95260000       1.85890000      -0.70550000
H       -0.27890000      -0.31080000      -0.93470000
H        0.40770000      -0.57690000       2.06160000
H       -2.36510000       0.04750000       1.38330000
H       -2.68680000      -2.75470000       0.61320000
H       -1.83380000      -1.72720000      -0.56830000
H        0.22430000      -3.05030000       0.54570000
H       -1.33550000      -3.76240000       2.57880000
H        0.01760000      -2.79600000       3.18130000
H       -1.49710000      -0.98460000       3.67210000
H       -2.84880000      -1.95000000       3.06500000
