18
Properties=species:S:1:pos:R:3 gdb_88316=T pbc="F F F"
C       -0.15670000       1.44760000      -0.04830000
C        0.13770000      -0.03490000      -0.00780000
C        1.44030000      -0.59670000      -0.47240000
C        1.10940000      -0.65740000       1.00700000
C        1.88730000       0.22180000       1.92950000
O        2.49210000       1.20780000       1.58180000
N        1.83980000      -0.21160000       3.26890000
C        2.44520000       0.36660000       4.38100000
O        3.13030000       1.35030000       4.39880000
H        0.73370000       2.03510000       0.18090000
H       -0.51100000       1.72980000      -1.04550000
H       -0.93850000       1.71460000       0.67080000
H       -0.72930000      -0.66670000      -0.18470000
H        1.45640000      -1.53220000      -1.01980000
H        2.22050000       0.11090000      -0.73200000
H        0.81140000      -1.62120000       1.40830000
H        1.29520000      -1.04000000       3.45790000
H        2.20380000      -0.22460000       5.28930000
