17
Properties=species:S:1:pos:R:3 gdb_125890=T pbc="F F F"
C       -0.12530000       1.52370000      -0.05190000
C       -0.00230000       0.01930000       0.02620000
C        1.32170000      -0.66390000      -0.21960000
C        0.73690000      -0.66220000       1.16220000
N        1.36380000       0.11250000       2.19750000
N        0.85280000       0.18690000       3.42240000
C        1.71610000       1.00250000       4.01560000
N        2.70240000       1.41210000       3.19010000
N        2.46820000       0.83390000       2.03580000
H        0.78120000       2.01930000       0.30520000
H       -0.29100000       1.83800000      -1.08730000
H       -0.96810000       1.88210000       0.54800000
H       -0.88550000      -0.52580000      -0.29600000
H        1.34860000      -1.61220000      -0.74410000
H        2.18410000      -0.02810000      -0.37960000
H        0.32340000      -1.57340000       1.57430000
H        1.63420000       1.29960000       5.04840000
