18
Properties=species:S:1:pos:R:3 gdb_97406=T pbc="F F F"
C        0.33200000       0.90050000      -0.43060000
N       -0.24150000      -0.15260000       0.38070000
C        0.55270000      -0.95090000       0.93470000
O        0.07340000      -1.97160000       1.69330000
C        1.02870000      -2.70690000       2.39650000
C        0.71230000      -4.14330000       2.61390000
C        1.85460000      -3.76940000       1.67070000
C        1.71810000      -3.95630000       0.25860000
C        1.62120000      -4.10150000      -0.93140000
H        1.43390000       0.89630000      -0.46010000
H       -0.03880000       0.81450000      -1.45830000
H        0.00050000       1.87480000      -0.05400000
H        1.64930000      -0.91600000       0.86660000
H        1.52960000      -2.15210000       3.18690000
H        0.96380000      -4.59860000       3.56440000
H       -0.19460000      -4.50540000       2.14520000
H        2.85870000      -3.91280000       2.06010000
H        1.52470000      -4.23470000      -1.98030000
