15
Properties=species:S:1:pos:R:3 gdb_4103=T pbc="F F F"
O       -0.15920000       1.29770000      -0.08300000
N       -0.00890000      -0.09660000      -0.03010000
C       -1.13700000      -0.67950000       0.01610000
C       -2.51600000      -0.05440000       0.02410000
C       -3.41460000      -1.26700000       0.01940000
C       -2.73470000      -2.41330000       0.04750000
C       -1.23560000      -2.20730000       0.04990000
O       -0.56080000      -2.87280000      -1.00900000
H        0.75480000       1.60060000      -0.11620000
H       -2.65300000       0.57790000       0.91140000
H       -2.67010000       0.61070000      -0.83550000
H       -4.49570000      -1.18210000       0.00640000
H       -3.16230000      -3.40890000       0.05260000
H       -0.76800000      -2.60780000       0.95730000
H       -0.89230000      -2.50800000      -1.83740000
