20
Properties=species:S:1:pos:R:3 gdb_61826=T pbc="F F F"
C        0.02530000       1.43250000      -0.17660000
C        0.01660000      -0.08680000       0.03230000
N        0.75080000      -0.46840000       1.24830000
C        2.10820000      -0.53440000       1.29840000
O        2.84770000      -0.38680000       0.34810000
C       -1.38310000      -0.65660000       0.10660000
C       -2.10610000      -1.07440000      -1.15780000
C       -1.61740000      -2.11880000      -0.20120000
O       -0.55100000      -2.90430000      -0.64470000
H        1.05320000       1.79700000      -0.24210000
H       -0.49630000       1.69070000      -1.10310000
H       -0.47670000       1.94610000       0.65100000
H        0.55290000      -0.56000000      -0.79360000
H        0.24500000      -0.49170000       2.12100000
H        2.47420000      -0.76430000       2.32010000
H       -2.00290000      -0.22510000       0.89150000
H       -3.17120000      -0.88990000      -1.23670000
H       -1.55740000      -0.99430000      -2.09020000
H       -2.35960000      -2.64790000       0.39670000
H        0.07020000      -3.00590000       0.08520000
