15
Properties=species:S:1:pos:R:3 gdb_55243=T pbc="F F F"
N        0.54230000      -0.13230000       0.73730000
C       -0.17510000       0.29330000      -0.32690000
O        0.16850000       1.16680000      -1.09980000
C       -1.54670000      -0.38830000      -0.49140000
C       -1.78700000      -0.84570000      -1.94380000
N       -1.44400000      -2.24910000      -1.81300000
C       -1.52350000      -2.68960000      -0.51750000
O       -1.47840000      -3.80860000      -0.09390000
O       -1.65390000      -1.58050000       0.29820000
H        1.45170000       0.26590000       0.90190000
H        0.21580000      -0.90100000       1.29860000
H       -2.30770000       0.31770000      -0.15010000
H       -2.83000000      -0.69690000      -2.25040000
H       -1.13030000      -0.30430000      -2.62710000
H       -1.57520000      -2.91960000      -2.55150000
