20
Properties=species:S:1:pos:R:3 gdb_116032=T pbc="F F F"
C       -0.08480000       1.58000000      -0.12970000
C        0.03280000       0.05440000       0.00380000
N        0.65270000      -0.48490000      -1.21010000
C        1.83990000      -0.91770000      -1.15260000
O        2.70350000      -0.94960000      -0.11170000
C        2.26500000      -0.28490000       1.08150000
C        0.75820000      -0.43740000       1.27500000
C        0.29140000       0.22800000       2.56480000
O        0.90530000      -0.45800000       3.64820000
H        0.89350000       2.06780000      -0.06780000
H       -0.51320000       1.82300000      -1.10540000
H       -0.73210000       2.00260000       0.64500000
H       -0.98920000      -0.34640000       0.02310000
H        2.31180000      -1.35450000      -2.03140000
H        2.81990000      -0.73350000       1.90580000
H        2.54660000       0.77480000       1.01060000
H        0.55170000      -1.51040000       1.37760000
H        0.56780000       1.29370000       2.56640000
H       -0.80730000       0.17360000       2.62850000
H        0.65980000      -0.01590000       4.46600000
