15
Properties=species:S:1:pos:R:3 gdb_45205=T pbc="F F F"
O       -0.12890000       0.04080000       0.33280000
C       -0.02850000       1.18240000       0.04510000
O       -1.05310000       2.08490000      -0.30490000
C       -0.05390000       3.00850000      -0.90320000
C        0.33790000       4.48190000      -0.64700000
C        1.67020000       4.13120000       0.12720000
C        1.10390000       3.22360000       1.21850000
C        0.98380000       2.33980000      -0.04540000
O        2.23980000       2.89990000      -0.51450000
H        0.01680000       2.75410000      -1.96050000
H        0.49000000       5.01030000      -1.58930000
H       -0.33010000       5.06980000      -0.01500000
H        2.42080000       4.90350000       0.28610000
H        1.87070000       2.82370000       1.88130000
H        0.19980000       3.51650000       1.75460000
