18
Properties=species:S:1:pos:R:3 gdb_90820=T pbc="F F F"
C       -0.05570000       1.56920000      -0.03700000
C        0.01060000       0.04940000       0.01600000
O        0.71270000      -0.44090000      -1.15150000
C        1.72670000      -1.30030000      -0.68400000
C        1.24840000      -2.54470000       0.07560000
C        2.09020000      -2.23330000       1.25610000
C        2.24570000      -0.78740000       0.69270000
C        0.80940000      -0.52150000       1.18910000
N        0.61820000      -2.01790000       1.34070000
H        0.94370000       2.00810000       0.04920000
H       -0.48640000       1.89240000      -0.98860000
H       -0.67930000       1.95790000       0.77460000
H       -1.00200000      -0.37740000       0.02260000
H        2.45890000      -1.47760000      -1.47140000
H        0.87670000      -3.48960000      -0.29830000
H        2.65570000      -2.85150000       1.93810000
H        3.07630000      -0.09230000       0.78160000
H        0.66870000      -0.02160000       2.14750000
