18
Properties=species:S:1:pos:R:3 gdb_56240=T pbc="F F F"
N       -0.84120000       0.87110000      -0.75090000
C       -0.28620000      -0.12400000      -0.14820000
N        0.98050000      -0.62960000      -0.41210000
H        1.54890000      -0.05540000      -1.01600000
H        1.48890000      -0.96430000       0.39430000
N       -0.95330000      -0.81220000       0.83280000
C       -2.33220000      -0.47460000       1.16780000
C       -3.39100000      -0.80810000       0.07780000
C       -4.20720000       0.40170000      -0.39380000
O       -3.49270000       1.44400000      -0.81820000
O       -5.41290000       0.40960000      -0.38360000
H       -0.20170000       1.36230000      -1.36690000
H       -2.50900000       1.25120000      -0.80070000
H       -0.69890000      -1.78430000       0.92090000
H       -2.56910000      -1.00840000       2.09110000
H       -2.35480000       0.59230000       1.40200000
H       -2.88180000      -1.23080000      -0.79540000
H       -4.10430000      -1.55140000       0.43650000
