21
Properties=species:S:1:pos:R:3 gdb_106767=T pbc="F F F"
C       -0.14490000       1.49610000      -0.06610000
C        0.09400000       0.00220000      -0.02120000
O        1.24570000      -0.44500000      -0.80200000
C        1.73930000      -1.19250000       0.31830000
C        2.33690000      -2.53400000       0.04180000
C        2.09910000      -0.25130000       1.42790000
C        0.64510000      -0.67760000       1.23420000
C       -0.18390000      -1.30760000       2.30920000
O       -0.80910000      -0.34030000       3.14850000
H        0.72100000       2.05370000       0.30070000
H       -0.35090000       1.82060000      -1.09100000
H       -1.01030000       1.74540000       0.55660000
H       -0.79840000      -0.53310000      -0.37530000
H        3.24720000      -2.42620000      -0.55890000
H        2.60670000      -3.03780000       0.97430000
H        1.63900000      -3.16880000      -0.51270000
H        2.58170000      -0.70780000       2.28840000
H        2.43480000       0.75520000       1.19560000
H       -1.00780000      -1.88350000       1.87260000
H        0.42970000      -2.01040000       2.89580000
H       -0.11180000       0.22710000       3.49440000
