17
Properties=species:S:1:pos:R:3 gdb_45753=T pbc="F F F"
O        0.07770000       0.00640000      -0.23570000
C       -0.00810000       1.20160000      -0.08450000
C       -1.23040000       2.12170000      -0.06190000
N       -0.72950000       3.48040000       0.15920000
C        0.53990000       3.36410000       0.24750000
N        1.06020000       2.07910000       0.11950000
C        2.42480000       1.64380000       0.17330000
C        3.54230000       2.47690000      -0.39220000
C        3.42040000       2.27940000       1.10450000
H       -1.78100000       2.05580000      -1.00650000
H       -1.92280000       1.82490000       0.73330000
H        1.21050000       4.20070000       0.41330000
H        2.45920000       0.56970000       0.03440000
H        4.33610000       1.96720000      -0.92640000
H        3.29440000       3.45440000      -0.79190000
H        3.09170000       3.12600000       1.69790000
H        4.12960000       1.63280000       1.60860000
