18
Properties=species:S:1:pos:R:3 gdb_37511=T pbc="F F F"
C       -0.03260000       1.48620000      -0.04140000
C        1.49390000       1.38170000      -0.00600000
C        1.27450000       0.05790000       0.79130000
C        2.22470000      -1.00360000       0.13440000
C        1.26540000      -1.73960000      -0.81930000
C        0.61470000      -0.42410000      -1.25510000
C        1.87350000       0.58320000      -1.26530000
O        2.96890000      -0.21700000      -0.80910000
N       -0.05760000      -0.01720000       0.01710000
H       -0.47230000       1.90270000       0.86850000
H       -0.51950000       1.92450000      -0.91880000
H        2.17190000       2.18130000       0.29330000
H        1.15560000       0.08580000       1.87240000
H        2.89500000      -1.57070000       0.77680000
H        1.81940000      -2.26850000      -1.59590000
H        0.53920000      -2.39660000      -0.33740000
H       -0.05010000      -0.41480000      -2.11720000
H        2.13120000       1.11080000      -2.18140000
