20
Properties=species:S:1:pos:R:3 gdb_23151=T pbc="F F F"
C        0.11850000       1.11600000      -0.49130000
O       -0.04700000      -0.25750000      -0.75800000
C        1.07850000      -1.02540000      -0.36910000
C        0.84490000      -2.47980000      -0.68880000
N        0.99630000      -3.25530000       0.32170000
O        0.83240000      -4.60840000      -0.00690000
C        0.54460000      -2.93770000      -2.06470000
C       -0.68410000      -2.44190000      -2.81910000
C        0.68330000      -2.03170000      -3.27120000
H        0.25990000       1.30570000       0.58390000
H        0.98270000       1.53590000      -1.03020000
H       -0.78860000       1.62520000      -0.82490000
H        1.97510000      -0.66710000      -0.90540000
H        1.27010000      -0.93130000       0.70840000
H        1.00110000      -5.04020000       0.83680000
H        0.78280000      -3.98200000      -2.22010000
H       -1.23030000      -3.18030000      -3.39510000
H       -1.28930000      -1.69060000      -2.32990000
H        0.96740000      -0.99960000      -3.10580000
H        1.09570000      -2.47370000      -4.17140000
