20
Properties=species:S:1:pos:R:3 gdb_26384=T pbc="F F F"
C       -0.08600000       1.52960000      -0.08140000
C       -0.00360000       0.00090000       0.00160000
C        0.89030000      -0.44500000       1.16520000
C       -1.42520000      -0.60300000       0.11190000
C       -1.46050000      -2.08810000       0.01460000
N       -1.75060000      -2.95980000       0.93060000
C       -1.61320000      -4.19240000       0.30200000
C       -1.23970000      -3.99520000      -0.98170000
O       -1.13650000      -2.64680000      -1.18480000
H        0.91050000       1.97060000      -0.18540000
H       -0.68840000       1.85380000      -0.93650000
H       -0.54010000       1.94700000       0.82530000
H        0.43540000      -0.37040000      -0.93360000
H        0.50050000      -0.07270000       2.12000000
H        0.94960000      -1.53490000       1.23700000
H        1.90700000      -0.05710000       1.04570000
H       -1.87570000      -0.33100000       1.07110000
H       -2.05480000      -0.18060000      -0.68070000
H       -1.79450000      -5.11970000       0.82170000
H       -1.02300000      -4.62850000      -1.82440000
