17
Properties=species:S:1:pos:R:3 gdb_9623=T pbc="F F F"
C       -0.32600000       1.76430000       0.57190000
C       -0.06250000       0.38100000       0.01360000
C       -1.30260000      -0.27520000      -0.57750000
O       -0.93080000      -1.48900000      -1.20730000
N        1.20910000       0.17440000      -0.66210000
C        0.96290000      -0.54530000       0.61350000
C        1.81630000      -0.14950000       1.76500000
O        1.96810000      -0.83000000       2.74990000
H        0.59940000       2.23890000       0.90000000
H       -0.77260000       2.40460000      -0.19730000
H       -1.01680000       1.72310000       1.42090000
H       -2.04060000      -0.44320000       0.22180000
H       -1.75200000       0.42340000      -1.30220000
H       -1.71680000      -1.89920000      -1.57750000
H        1.08080000      -0.48910000      -1.42410000
H        0.72290000      -1.60330000       0.57090000
H        2.32330000       0.83320000       1.64760000
