14
Properties=species:S:1:pos:R:3 gdb_1493=T pbc="F F F"
C       -0.06250000       1.52840000      -0.03140000
C        0.00920000       0.00970000       0.07930000
N       -1.32560000      -0.56950000       0.03170000
C       -1.51150000      -1.91780000      -0.01400000
N       -0.54010000      -2.74740000      -0.11780000
C       -2.90980000      -2.32350000       0.04300000
N       -4.00700000      -2.68510000       0.09420000
H        0.94280000       1.95530000       0.00350000
H       -0.53170000       1.83460000      -0.97130000
H       -0.63530000       1.96170000       0.79640000
H        0.59110000      -0.41790000      -0.74310000
H        0.51940000      -0.29090000       1.00480000
H       -2.10730000       0.00590000       0.29810000
H       -0.88020000      -3.70330000      -0.18080000
