16
Properties=species:S:1:pos:R:3 gdb_67546=T pbc="F F F"
O       -0.06940000       1.40110000       0.09770000
C        0.01860000       0.02610000      -0.01350000
C        1.22260000      -0.67390000       0.66680000
C        1.20640000      -2.14580000       0.60230000
N        1.62080000      -1.39780000      -0.60190000
C        0.38980000      -0.81250000      -1.28630000
C       -0.96710000      -1.55820000      -1.21940000
C       -1.32860000      -0.74300000       0.04910000
O       -2.29070000      -0.67890000       0.75220000
H        0.81880000       1.77550000       0.06650000
H        1.94160000      -0.11690000       1.26410000
H        2.04010000      -2.66930000       1.06170000
H        0.27560000      -2.70260000       0.62550000
H        0.66150000      -0.35880000      -2.23710000
H       -1.62090000      -1.26650000      -2.04880000
H       -0.98250000      -2.64770000      -1.14110000
