21
Properties=species:S:1:pos:R:3 gdb_65117=T pbc="F F F"
C        0.08010000       1.46540000      -0.40730000
C       -0.00190000      -0.01240000      -0.08030000
C        1.15850000      -0.88090000      -0.37360000
O        0.88620000      -0.44740000       0.95900000
C       -1.36230000      -0.61430000      -0.04140000
C       -1.84180000      -1.40310000       0.92240000
C       -3.27270000      -1.81100000       0.67380000
C       -3.50250000      -1.39890000      -0.80320000
C       -2.40470000      -0.34920000      -1.11300000
H        1.11970000       1.80100000      -0.38850000
H       -0.33680000       1.67260000      -1.39800000
H       -0.48430000       2.05140000       0.32560000
H        0.99490000      -1.94090000      -0.56090000
H        2.05130000      -0.45420000      -0.83110000
H       -1.28290000      -1.68420000       1.80670000
H       -3.44970000      -2.87950000       0.84200000
H       -3.95000000      -1.27970000       1.35810000
H       -3.35950000      -2.27130000      -1.44860000
H       -4.51150000      -1.02250000      -0.98980000
H       -2.78840000       0.67790000      -1.03350000
H       -2.00690000      -0.44760000      -2.13020000
