14
Properties=species:S:1:pos:R:3 gdb_128381=T pbc="F F F"
C       -0.00930000       1.40380000      -0.02220000
N       -0.01620000      -0.04580000       0.12690000
C       -1.19440000      -0.72470000       0.04160000
N       -2.36590000      -0.12900000       0.01170000
O       -3.28910000      -1.16660000      -0.00890000
N       -2.69980000      -2.36850000      -0.00860000
C       -1.40550000      -2.15040000       0.02510000
C       -0.40440000      -3.23250000       0.05690000
O       -0.65290000      -4.41000000       0.00990000
H        1.00710000       1.76650000       0.13970000
H       -0.35830000       1.72790000      -1.01110000
H       -0.66600000       1.84740000       0.72990000
H        0.79420000      -0.53070000      -0.22220000
H        0.64450000      -2.86820000       0.13670000
