22
Properties=species:S:1:pos:R:3 gdb_101013=T pbc="F F F"
C        0.85930000       1.87420000      -0.10000000
C        0.25540000       0.46260000      -0.03420000
C        0.43890000      -0.27680000      -1.36550000
O       -0.47530000      -1.36990000      -1.39150000
C        0.78360000      -0.33190000       1.16040000
C        2.30030000      -0.35740000       1.36970000
O        2.67480000      -1.31750000       2.32830000
C       -0.09170000      -0.48140000       2.35290000
N        0.17040000      -1.63480000       1.47410000
H        1.92970000       1.84980000      -0.32980000
H        0.36850000       2.46840000      -0.87690000
H        0.73500000       2.39650000       0.85300000
H       -0.83050000       0.56410000       0.09350000
H        0.23490000       0.41550000      -2.19710000
H        1.47590000      -0.62530000      -1.47460000
H       -0.23100000      -1.95910000      -2.11060000
H        2.79640000      -0.54920000       0.40110000
H        2.65260000       0.61880000       1.72240000
H        2.04880000      -2.04890000       2.19660000
H        0.35420000      -0.56150000       3.33950000
H       -1.07580000      -0.02030000       2.32440000
H       -0.59540000      -1.82280000       0.83460000
