18
Properties=species:S:1:pos:R:3 gdb_96032=T pbc="F F F"
C       -0.41730000       1.50630000      -0.12800000
C        0.16070000       0.10580000      -0.07030000
O        1.37390000       0.04900000      -0.81780000
C        1.96890000      -1.16000000      -0.43200000
O        1.64620000      -1.37030000       0.93830000
C        0.61810000      -0.45560000       1.29610000
C        1.18490000       0.61130000       2.25550000
C        1.74100000       0.01850000       3.46870000
N        2.16480000      -0.44320000       4.43900000
H        0.29910000       2.24950000       0.23020000
H       -0.67640000       1.75730000      -1.15940000
H       -1.32770000       1.57060000       0.47580000
H       -0.56260000      -0.61000000      -0.49520000
H        1.57910000      -2.00410000      -1.02580000
H        3.05330000      -1.07940000      -0.55640000
H       -0.18620000      -1.00530000       1.79660000
H        1.96850000       1.17860000       1.74280000
H        0.39800000       1.31660000       2.54540000
