19
Properties=species:S:1:pos:R:3 gdb_82008=T pbc="F F F"
C       -0.51160000       1.38860000       0.44370000
N       -0.05600000       0.03720000       0.17760000
C        0.27880000      -0.36560000      -1.18210000
C        1.55810000       0.24310000      -1.68910000
C        1.61590000      -0.92430000      -0.73430000
C        1.26290000      -0.46470000       0.69840000
C        2.20890000       0.51740000       1.39440000
C        1.02170000      -1.61560000       1.58780000
N        0.85770000      -2.52180000       2.28610000
H        0.15900000       2.18520000       0.08210000
H       -1.48350000       1.52380000      -0.04180000
H       -0.65960000       1.52330000       1.51930000
H       -0.47650000      -0.79710000      -1.82920000
H        1.81760000      -0.01280000      -2.71190000
H        1.86630000       1.24020000      -1.39070000
H        2.07760000      -1.87190000      -0.97360000
H        2.45110000       1.36000000       0.74490000
H        1.76470000       0.90220000       2.31670000
H        3.13890000       0.00580000       1.65750000
