19
Properties=species:S:1:pos:R:3 gdb_88807=T pbc="F F F"
C        0.80230000       1.53200000      -0.30470000
N        0.16330000       0.24050000      -0.06110000
C        1.02990000      -0.90710000       0.19040000
C        0.19370000      -0.32630000       1.28180000
C        0.78620000       0.38660000       2.48680000
C        0.80550000      -0.41600000       3.81000000
O        2.25470000      -0.25090000       3.89890000
C        2.29110000       0.43820000       2.70930000
N        3.26370000       0.92290000       2.08200000
H        1.74490000       1.68490000       0.23890000
H        1.00510000       1.61490000      -1.37700000
H        0.10260000       2.33150000      -0.03770000
H        0.73940000      -1.83820000      -0.28990000
H        2.10150000      -0.72910000       0.24780000
H       -0.73440000      -0.83720000       1.54170000
H        0.33030000       1.37500000       2.60570000
H        0.30630000       0.03620000       4.66950000
H        0.54020000      -1.47280000       3.72300000
H        4.14610000       0.75500000       2.56800000
