19
Properties=species:S:1:pos:R:3 gdb_36250=T pbc="F F F"
C        0.00540000      -1.20800000      -0.27860000
C       -0.03070000      -0.03330000      -0.02530000
C       -0.03380000       1.39440000       0.27570000
C        1.36050000       2.02250000       0.15950000
C        1.95290000       2.29820000      -1.23780000
C        1.11350000       3.61250000      -1.43650000
C        2.36290000       4.44290000      -1.78860000
C        2.84250000       3.47030000      -0.69500000
C        1.48740000       3.55970000       0.08940000
H        0.02340000      -2.24600000      -0.50000000
H       -0.73170000       1.90790000      -0.39760000
H       -0.41990000       1.55170000       1.29180000
H        2.05240000       1.53500000       0.85650000
H        2.23090000       1.58820000      -2.01800000
H        0.10980000       3.68510000      -1.85710000
H        2.78060000       4.30240000      -2.79090000
H        2.33790000       5.50630000      -1.52860000
H        3.83080000       3.36250000      -0.24510000
H        1.22940000       4.30890000       0.84090000
