21
Properties=species:S:1:pos:R:3 gdb_80138=T pbc="F F F"
C       -0.50990000       1.25610000      -0.25500000
C       -0.08190000      -0.16810000       0.00680000
C        1.35810000      -0.63000000      -0.20850000
C        2.39460000       0.24880000      -0.79100000
C        3.17990000       1.16190000      -0.21850000
C        3.28670000       1.62050000       1.20880000
C        2.22070000       1.32460000       2.22630000
C        1.21520000       0.44890000       2.21570000
C        0.80890000      -0.53710000       1.19150000
H        0.27530000       1.96830000       0.00590000
H       -0.75600000       1.40010000      -1.31300000
H       -1.40060000       1.50850000       0.33100000
H       -0.83860000      -0.90870000      -0.24120000
H        1.42770000      -1.64740000      -0.58960000
H        2.52830000       0.10140000      -1.86280000
H        3.88610000       1.67150000      -0.87320000
H        4.24980000       1.25900000       1.61080000
H        3.42290000       2.71280000       1.18950000
H        2.31880000       1.93750000       3.12170000
H        0.58100000       0.43190000       3.10220000
H        0.55640000      -1.49990000       1.63240000
