25
Properties=species:S:1:pos:R:3 gdb_121351=T pbc="F F F"
C       -0.20480000       1.57500000       0.00180000
C       -0.02090000       0.05480000       0.00310000
C        0.73920000      -0.45300000       1.23420000
C        0.89090000      -1.97530000       1.28480000
C        1.72190000      -2.60440000       0.13880000
C        2.29170000      -3.93760000       0.70410000
C        1.86690000      -3.97460000       2.19430000
C        1.57900000      -2.51060000       2.55090000
O        2.78500000      -1.76800000       2.72930000
H        0.76240000       2.08980000       0.01890000
H       -0.74640000       1.91340000      -0.88740000
H       -0.76830000       1.90620000       0.88140000
H       -1.00460000      -0.43230000      -0.04470000
H        0.51080000      -0.24740000      -0.90780000
H        1.73470000       0.00400000       1.27160000
H        0.21590000      -0.11590000       2.14010000
H       -0.11290000      -2.42450000       1.27200000
H        1.12170000      -2.76010000      -0.76140000
H        2.53810000      -1.92820000      -0.13380000
H        1.91510000      -4.80980000       0.16300000
H        3.38050000      -3.95650000       0.61240000
H        0.95020000      -4.56170000       2.32450000
H        2.62470000      -4.41960000       2.84880000
H        0.93740000      -2.41250000       3.43970000
H        3.27910000      -2.17570000       3.44680000
