19
Properties=species:S:1:pos:R:3 gdb_64929=T pbc="F F F"
C       -0.16990000       1.45770000       0.40580000
C        0.02030000       0.01770000      -0.04890000
C        1.41950000      -0.43250000      -0.45160000
C        0.82920000      -0.91850000       0.83970000
C       -1.08910000      -0.55090000      -0.76660000
C       -2.03340000      -1.01060000      -1.36060000
C       -3.15750000      -1.53140000      -2.08690000
C       -3.31560000      -2.97530000      -2.35340000
O       -4.11380000      -2.33510000      -1.36830000
H        0.71640000       1.81170000       0.94150000
H       -0.33770000       2.11920000      -0.44980000
H       -1.03130000       1.54530000       1.07500000
H        1.50380000      -1.13370000      -1.27300000
H        2.20290000       0.31680000      -0.41250000
H        1.20530000      -0.50410000       1.76890000
H        0.50940000      -1.95160000       0.90130000
H       -3.61970000      -0.84120000      -2.79230000
H       -3.83790000      -3.29550000      -3.25460000
H       -2.56270000      -3.66410000      -1.97460000
