15
Properties=species:S:1:pos:R:3 gdb_29503=T pbc="F F F"
O        0.09350000       1.40210000       0.13870000
C        0.07160000       0.03640000       0.04370000
C        0.06610000      -0.76530000      -1.08050000
N        0.04210000      -2.10450000      -0.68990000
C        0.03140000      -2.15550000       0.68130000
C        0.04970000      -0.84320000       1.15510000
N        0.03960000      -0.89710000       2.53030000
C        0.01530000      -2.22490000       2.90990000
C        0.00930000      -3.03950000       1.79470000
H        0.10510000       1.77230000      -0.74870000
H        0.07780000      -0.49000000      -2.12310000
H        0.03050000      -2.88370000      -1.32050000
H        0.04850000      -0.11270000       3.15580000
H        0.00390000      -2.49250000       3.95470000
H       -0.00850000      -4.11790000       1.80300000
