21
Properties=species:S:1:pos:R:3 gdb_90854=T pbc="F F F"
C       -0.13580000       1.52180000       0.00770000
C        0.05660000       0.00520000       0.04220000
C        0.95790000      -0.56740000      -1.10300000
C        2.01050000      -1.29340000      -0.26940000
C        1.22410000      -2.00900000       0.89610000
C        2.31830000      -2.33860000       1.90350000
C        3.06940000      -1.23450000       1.91680000
C        2.37640000      -0.31930000       0.91430000
C        0.84570000      -0.51950000       1.24550000
H        0.82440000       2.04840000       0.03560000
H       -0.65480000       1.83080000      -0.90610000
H       -0.72970000       1.86680000       0.86110000
H       -0.93210000      -0.46970000       0.01800000
H        0.41460000      -1.24200000      -1.77260000
H        1.39400000       0.22660000      -1.71950000
H        2.80800000      -1.83030000      -0.78770000
H        0.45020000      -2.74930000       0.68300000
H        2.42460000      -3.26110000       2.45630000
H        3.96050000      -1.00430000       2.48320000
H        2.79640000       0.66940000       0.72300000
H        0.47750000      -0.27920000       2.24590000
