18
Properties=species:S:1:pos:R:3 gdb_71471=T pbc="F F F"
C        0.06200000       1.56270000       0.04560000
C        0.03630000       0.05850000       0.05210000
C       -1.24890000      -0.76520000       0.27200000
N       -0.43460000      -1.88960000       0.83800000
C        0.66770000      -0.93690000       1.11350000
C        0.82780000      -1.90120000      -0.01550000
C        0.74160000      -0.77610000      -1.05280000
C        1.57410000      -3.10800000      -0.10190000
C        2.22940000      -4.11060000      -0.21210000
H        1.08680000       1.94580000      -0.00050000
H       -0.47820000       1.95410000      -0.82460000
H       -0.41140000       1.97330000       0.94400000
H       -1.88150000      -0.37300000       1.07370000
H       -1.86340000      -1.01810000      -0.60010000
H        1.17880000      -0.84190000       2.06300000
H        0.19150000      -0.96010000      -1.98200000
H        1.74120000      -0.39610000      -1.27840000
H        2.79900000      -5.00220000      -0.29980000
