19
Properties=species:S:1:pos:R:3 gdb_60332=T pbc="F F F"
C        0.12630000       1.48860000      -0.10060000
C       -0.01720000      -0.03100000      -0.16910000
O        0.82770000      -0.67560000       0.78440000
C       -1.47440000      -0.48470000      -0.01140000
C       -1.62640000      -1.99950000      -0.13170000
C       -2.98330000      -2.51210000       0.27330000
O       -3.84650000      -1.85860000       0.81490000
C       -3.29120000      -3.98950000      -0.01910000
O       -2.54370000      -4.72570000      -0.60650000
H        1.17710000       1.77510000      -0.19410000
H       -0.44100000       1.97730000      -0.89910000
H       -0.25100000       1.87140000       0.85620000
H        0.36100000      -0.38090000      -1.13840000
H        0.60890000      -0.31970000       1.65330000
H       -1.85300000      -0.15810000       0.96560000
H       -2.09920000       0.01760000      -0.75910000
H       -1.41010000      -2.36310000      -1.14410000
H       -0.87970000      -2.49980000       0.50130000
H       -4.28710000      -4.30060000       0.36260000
