19
Properties=species:S:1:pos:R:3 gdb_99056=T pbc="F F F"
C        0.12160000       1.50330000       0.27520000
C        0.05140000       0.00700000      -0.02740000
C        0.77530000      -0.35870000      -1.31870000
O        0.99740000       0.43880000      -2.21010000
N        1.15100000      -1.67720000      -1.40980000
C        1.76070000      -2.21270000      -2.61560000
C        3.21430000      -2.66470000      -2.39670000
C        0.94440000      -3.31540000      -3.15350000
N        0.31640000      -4.19940000      -3.55280000
H        1.15060000       1.81740000       0.47230000
H       -0.24080000       2.07960000      -0.57810000
H       -0.48490000       1.74720000       1.15150000
H        0.45280000      -0.58520000       0.80370000
H       -0.99420000      -0.30720000      -0.14800000
H        0.92040000      -2.31440000      -0.66420000
H        1.73940000      -1.38550000      -3.33320000
H        3.80510000      -1.81240000      -2.05360000
H        3.26910000      -3.45910000      -1.64700000
H        3.64220000      -3.04290000      -3.32870000
