15
Properties=species:S:1:pos:R:3 gdb_132955=T pbc="F F F"
C       -0.04250000       1.45720000       0.00880000
N        0.00060000      -0.00670000       0.00050000
C       -1.24640000      -0.69400000       0.00430000
N       -2.30500000       0.02910000       0.01480000
C       -1.10020000      -2.13480000      -0.00480000
C        0.12760000      -2.70090000      -0.01500000
N        1.30250000      -1.98410000      -0.01770000
C        1.15560000      -0.71070000      -0.00990000
F        2.24490000       0.04000000      -0.01180000
H        0.97080000       1.84770000       0.00200000
H       -0.59780000       1.80410000      -0.86490000
H       -0.58210000       1.79500000       0.89590000
H       -3.13130000      -0.56560000       0.01630000
H       -2.00060000      -2.73650000      -0.00290000
H        0.24910000      -3.77960000      -0.02170000
