17
Properties=species:S:1:pos:R:3 gdb_40554=T pbc="F F F"
C        0.18870000       1.46210000      -0.03390000
O        1.19400000       0.46930000      -0.19380000
C       -0.16010000       0.02840000      -0.00000000
C       -0.46100000      -0.68830000       1.25060000
C       -1.35050000      -1.67790000       1.40800000
C       -1.43800000      -2.16160000       2.83990000
C       -0.35470000      -1.34900000       3.53990000
O        0.96130000      -1.57900000       3.03620000
C        0.23710000      -0.42860000       2.55300000
H        0.23070000       2.03230000       0.89320000
H       -0.04900000       2.04420000      -0.92370000
H       -0.62490000      -0.38770000      -0.89420000
H       -1.93240000      -2.12030000       0.60650000
H       -2.42600000      -1.96580000       3.27690000
H       -1.25830000      -3.23980000       2.92880000
H       -0.41910000      -1.12790000       4.60180000
H        0.68230000       0.53020000       2.79800000
