17
Properties=species:S:1:pos:R:3 gdb_17900=T pbc="F F F"
O       -0.03360000       1.48540000      -0.03350000
C       -0.00040000       0.08200000       0.04180000
C        0.13920000      -0.64920000       1.40510000
C       -0.59770000       0.13180000       2.48800000
O       -1.97750000       0.28780000       2.19640000
C       -2.38200000       0.14440000       0.84190000
C       -1.36420000      -0.63280000       0.01240000
N       -0.80190000      -1.71340000       0.90270000
H        0.86830000       1.82050000      -0.03410000
H        0.68200000      -0.35150000      -0.70310000
H        1.12200000      -0.98520000       1.74700000
H       -0.53930000      -0.40360000       3.44250000
H       -0.11500000       1.11390000       2.61010000
H       -3.33490000      -0.39690000       0.85850000
H       -2.54550000       1.12870000       0.38040000
H       -1.78570000      -0.95070000      -0.94430000
H       -0.26490000      -2.35040000       0.31560000
