18
Properties=species:S:1:pos:R:3 gdb_72376=T pbc="F F F"
C       -0.09180000       1.48050000       0.09460000
C        0.01790000      -0.04030000       0.00050000
C       -1.36730000      -0.74850000      -0.02550000
C       -1.24770000      -1.83870000       1.00600000
C       -0.08840000      -1.81960000       1.66180000
C        0.80050000      -0.70960000       1.18280000
O        2.02080000      -1.21810000       0.56240000
C        1.84510000      -1.01480000      -0.76280000
N        0.81820000      -0.40750000      -1.19050000
H        0.90040000       1.93880000       0.15070000
H       -0.59820000       1.87980000      -0.78890000
H       -0.66010000       1.77490000       0.98370000
H       -2.17940000      -0.05270000       0.22210000
H       -1.58290000      -1.13910000      -1.02540000
H       -2.04770000      -2.54890000       1.18780000
H        0.21280000      -2.50460000       2.44560000
H        1.12250000      -0.02380000       1.97190000
H        2.64600000      -1.40260000      -1.38390000
