14
Properties=species:S:1:pos:R:3 gdb_97870=T pbc="F F F"
O        0.10940000       1.03630000       0.92880000
C       -0.03590000       0.18450000      -0.19860000
C       -1.37370000      -0.39550000      -0.20020000
C       -2.47180000      -0.88320000      -0.21640000
C       -3.81140000      -1.46940000      -0.22600000
C       -3.81240000      -2.91280000       0.00310000
C       -3.81850000      -4.10510000       0.18860000
C       -3.82550000      -5.45450000       0.39800000
N       -3.83310000      -6.60240000       0.57500000
H        1.00630000       1.38570000       0.91200000
H        0.11590000       0.73480000      -1.14140000
H        0.70260000      -0.63340000      -0.18460000
H       -4.43210000      -0.98800000       0.54280000
H       -4.31040000      -1.26250000      -1.18320000
