17
Properties=species:S:1:pos:R:3 gdb_115562=T pbc="F F F"
O        0.03860000       1.34990000      -0.46160000
C        0.12070000      -0.03050000      -0.16050000
C       -1.24570000      -0.53660000       0.27400000
O       -2.22220000      -0.28900000      -0.76980000
C       -2.42570000      -1.69680000      -0.99510000
C       -1.50440000      -2.08240000       0.18930000
O       -0.42000000      -2.88130000      -0.24400000
C       -2.15940000      -2.65020000       1.35730000
C       -2.66170000      -3.12140000       2.34280000
H       -0.68880000       1.43830000      -1.09030000
H        0.47950000      -0.61790000      -1.01630000
H        0.84590000      -0.14210000       0.65290000
H       -1.55640000      -0.06380000       1.21160000
H       -3.47700000      -1.98380000      -0.90560000
H       -2.01840000      -2.03680000      -1.95390000
H        0.00060000      -3.26590000       0.53250000
H       -3.11800000      -3.53780000       3.20730000
