17
Properties=species:S:1:pos:R:3 gdb_55735=T pbc="F F F"
N       -0.21510000       1.47510000       0.49660000
C       -0.06930000       0.09340000       0.52800000
O        0.78620000      -0.46720000       1.18320000
N       -1.01800000      -0.58430000      -0.21440000
C       -1.05950000      -2.00950000      -0.27240000
C       -1.30370000      -2.80330000       1.00700000
C       -2.39040000      -2.70530000      -0.00270000
C       -0.16230000      -2.65360000      -1.27720000
O       -0.12060000      -3.84100000      -1.48780000
H        0.59310000       1.95290000       0.86550000
H       -0.59340000       1.89730000      -0.33810000
H       -1.76370000      -0.06750000      -0.65110000
H       -0.75980000      -3.73730000       1.08150000
H       -1.36830000      -2.21700000       1.91400000
H       -3.23650000      -2.05920000       0.20480000
H       -2.59480000      -3.57110000      -0.62190000
H        0.47890000      -1.93360000      -1.83190000
