22
Properties=species:S:1:pos:R:3 gdb_56248=T pbc="F F F"
C       -0.19320000       1.40670000      -0.03360000
C        0.07210000      -0.06800000       0.07750000
N        1.23650000      -0.52520000       0.28940000
O       -1.09020000      -0.76020000      -0.08210000
C       -1.04460000      -2.18310000      -0.01140000
C       -2.45980000      -2.70710000      -0.22470000
C       -2.52100000      -4.21860000      -0.18280000
C       -2.63140000      -4.94360000       1.13770000
C       -3.80250000      -4.91920000       0.18700000
H        0.73840000       1.95640000       0.09160000
H       -0.63280000       1.63910000      -1.00860000
H       -0.91360000       1.71970000       0.72860000
H        1.25750000      -1.54270000       0.33980000
H       -0.36560000      -2.57270000      -0.78320000
H       -0.65770000      -2.49950000       0.96680000
H       -3.11180000      -2.28470000       0.54910000
H       -2.83150000      -2.33440000      -1.18680000
H       -1.91830000      -4.71290000      -0.94130000
H       -2.08990000      -5.87400000       1.26700000
H       -2.70190000      -4.34360000       2.03950000
H       -4.65630000      -4.30390000       0.45140000
H       -4.06040000      -5.83240000      -0.33750000
