21
Properties=species:S:1:pos:R:3 gdb_89234=T pbc="F F F"
C       -0.12890000       1.55550000      -0.02620000
C        0.01440000       0.03220000      -0.00460000
C        0.93190000      -0.54210000      -1.13090000
C        1.99330000      -1.27830000      -0.31630000
C        3.11390000      -2.00530000      -1.01780000
C        1.30070000      -1.92820000       0.93200000
O        2.48730000      -1.68080000       1.76400000
C        2.29250000      -0.45120000       0.98130000
C        0.75510000      -0.50300000       1.21780000
H        0.85020000       2.04550000       0.02780000
H       -0.61790000       1.89210000      -0.94630000
H       -0.72610000       1.91220000       0.81980000
H       -0.98530000      -0.41500000      -0.06130000
H        0.39840000      -1.21730000      -1.80860000
H        1.37210000       0.25080000      -1.74700000
H        3.70850000      -1.31780000      -1.63020000
H        3.77290000      -2.47450000      -0.28250000
H        2.72410000      -2.78350000      -1.68370000
H        0.80580000      -2.89680000       1.02620000
H        3.00040000       0.36450000       1.13770000
H        0.38520000      -0.28840000       2.22040000
