15
Properties=species:S:1:pos:R:3 gdb_28063=T pbc="F F F"
C       -0.07280000       1.49980000       0.05490000
C       -0.06180000       0.01000000      -0.01910000
N       -0.21710000      -0.70900000      -1.11710000
C       -0.12830000      -2.00910000      -0.71260000
O       -0.28010000      -3.06700000      -1.56690000
C        0.10470000      -2.91050000      -2.86680000
O       -0.05590000      -3.78010000      -3.66660000
C        0.07610000      -2.11290000       0.63460000
N        0.11300000      -0.79780000       1.06320000
H        0.90010000       1.89980000       0.36290000
H       -0.30940000       1.89680000      -0.93270000
H       -0.82280000       1.86580000       0.76470000
H        0.55570000      -1.92640000      -3.05770000
H        0.18890000      -2.95360000       1.29520000
H        0.23310000      -0.49570000       2.01540000
