20
Properties=species:S:1:pos:R:3 gdb_107232=T pbc="F F F"
C        0.07870000       1.49770000       0.11080000
C       -0.07900000       0.01170000      -0.04730000
C       -0.92490000      -0.81440000       0.84250000
N        0.54720000      -0.94950000       0.92920000
C        1.06950000      -1.73630000      -0.25950000
C        0.07580000      -2.20870000      -1.28690000
C        0.50220000      -0.76510000      -1.26480000
C        1.15870000      -0.09370000      -2.43770000
O        1.97890000      -1.05080000      -3.09400000
H        1.10210000       1.81960000      -0.10790000
H       -0.59950000       2.04130000      -0.55800000
H       -0.14890000       1.79320000       1.13870000
H       -1.33160000      -0.31710000       1.71930000
H       -1.54000000      -1.62990000       0.48290000
H        2.06330000      -2.15470000      -0.16730000
H        0.55390000      -2.76180000      -2.08850000
H       -0.92900000      -2.54630000      -1.06030000
H        0.39010000       0.30240000      -3.12350000
H        1.75870000       0.76340000      -2.09420000
H        2.36480000      -0.63220000      -3.86840000
