18
Properties=species:S:1:pos:R:3 gdb_74805=T pbc="F F F"
C       -0.01660000       1.52710000       0.00810000
C       -0.02220000       0.03570000      -0.05410000
C       -0.02640000      -0.78360000      -1.12110000
N       -0.09120000      -2.17620000      -0.81840000
C        1.17850000      -2.65220000      -0.22390000
C        0.02200000      -2.25240000       0.64670000
C       -0.77450000      -3.27570000       1.41370000
C        0.01320000      -0.82100000       1.15610000
O       -0.01990000      -0.47210000       2.31680000
H        0.85640000       1.88900000       0.56180000
H       -0.00770000       1.97500000      -0.98880000
H       -0.89760000       1.89440000       0.54610000
H        0.03420000      -0.50660000      -2.16780000
H        1.38490000      -3.71250000      -0.34260000
H        2.03710000      -1.99110000      -0.29970000
H       -0.69960000      -4.26420000       0.95470000
H       -0.40190000      -3.32800000       2.44080000
H       -1.83050000      -2.99230000       1.45470000
