17
Properties=species:S:1:pos:R:3 gdb_9524=T pbc="F F F"
C       -0.09500000       1.59940000      -0.01970000
C        0.10160000       0.07910000       0.02330000
C        0.77410000      -0.49730000      -1.22840000
N        2.12730000       0.00480000      -1.37520000
C        0.63860000      -2.02990000      -1.39090000
O       -0.27850000      -1.85060000      -2.51700000
C       -0.15410000      -0.48270000      -2.47300000
O       -0.63340000       0.31430000      -3.21610000
H        0.86020000       2.13450000       0.00030000
H       -0.63860000       1.90130000      -0.91950000
H       -0.66500000       1.93380000       0.85170000
H        0.71400000      -0.20080000       0.88850000
H       -0.87250000      -0.40870000       0.14540000
H        2.53670000      -0.31010000      -2.25040000
H        2.12180000       1.01930000      -1.41270000
H        1.54910000      -2.54360000      -1.70750000
H        0.15450000      -2.56980000      -0.57470000
