18
Properties=species:S:1:pos:R:3 gdb_30365=T pbc="F F F"
O       -0.63330000       1.38970000      -0.44600000
C       -0.03290000       0.14560000      -0.05790000
C       -1.17540000      -0.86710000       0.19000000
C       -1.40160000      -1.55870000      -1.17600000
N       -0.08570000      -1.43760000      -1.78720000
C        0.55190000      -1.97110000      -2.87000000
C        1.79520000      -1.37040000      -2.94890000
C        1.90240000      -0.43820000      -1.87710000
C        0.71470000      -0.50500000      -1.17900000
H       -0.00890000       1.83830000      -1.02520000
H        0.57900000       0.29780000       0.84050000
H       -0.85340000      -1.60600000       0.92940000
H       -2.06910000      -0.36450000       0.56340000
H       -1.70140000      -2.60590000      -1.08020000
H       -2.15580000      -1.03670000      -1.77580000
H        0.09290000      -2.73230000      -3.48050000
H        2.55260000      -1.59230000      -3.68570000
H        2.75320000       0.18470000      -1.64610000
