22
Properties=species:S:1:pos:R:3 gdb_120857=T pbc="F F F"
C        0.11760000       1.51230000       0.05820000
O       -0.05220000       0.11380000       0.04740000
C        0.75460000      -0.52900000      -0.91320000
C        0.51850000      -2.02510000      -0.93260000
C       -0.22250000      -2.71780000       0.15400000
N       -0.78160000      -2.63950000      -1.19890000
C       -1.96060000      -1.79760000      -1.41630000
C       -3.18820000      -2.69670000      -1.54880000
O       -3.39710000      -3.49680000      -0.39720000
H        1.15580000       1.79300000       0.29480000
H       -0.14780000       1.96320000      -0.91070000
H       -0.54270000       1.91490000       0.82960000
H        0.56430000      -0.10560000      -1.91600000
H        1.82230000      -0.35260000      -0.69470000
H        1.34130000      -2.55100000      -1.41660000
H        0.08770000      -3.70530000       0.48770000
H       -0.66500000      -2.08590000       0.91890000
H       -2.10920000      -1.06400000      -0.61410000
H       -1.82630000      -1.24520000      -2.35570000
H       -4.08660000      -2.08100000      -1.66630000
H       -3.08440000      -3.32030000      -2.44990000
H       -2.62690000      -4.07050000      -0.32580000
