18
Properties=species:S:1:pos:R:3 gdb_16520=T pbc="F F F"
C       -0.02030000       1.44540000       0.04040000
C        0.00480000      -0.06240000      -0.01190000
C        0.99330000      -0.74970000      -0.95560000
O        0.39630000      -1.99990000      -1.31210000
C       -0.63380000      -2.23790000      -0.36530000
C       -0.07310000      -2.32210000       1.09290000
C       -0.40100000      -0.83490000       1.23900000
C       -1.26290000      -0.86560000      -0.01990000
H        0.93230000       1.84710000       0.40480000
H       -0.20420000       1.87360000      -0.95140000
H       -0.80650000       1.80490000       0.71160000
H        1.14780000      -0.16350000      -1.87020000
H        1.97490000      -0.91280000      -0.48780000
H       -1.25420000      -3.05750000      -0.72500000
H       -0.71240000      -2.93570000       1.73410000
H        0.96630000      -2.65230000       1.19400000
H       -0.59100000      -0.30980000       2.16860000
H       -2.25610000      -0.48960000      -0.22690000
