20
Properties=species:S:1:pos:R:3 gdb_16909=T pbc="F F F"
C        0.01150000       1.55920000       0.00230000
C        0.01150000       0.02940000      -0.00000000
C        0.68130000      -0.52590000      -1.25890000
O        0.54830000      -1.93420000      -1.37010000
C        0.90230000      -2.67510000      -0.23810000
C        2.23420000      -2.53480000       0.44580000
C        0.96260000      -2.04780000       1.13120000
C        0.69950000      -0.54740000       1.25190000
H        1.03370000       1.95410000      -0.03760000
H       -0.53590000       1.96230000      -0.85630000
H       -0.45680000       1.95060000       0.91150000
H       -1.02720000      -0.32780000      -0.01630000
H        0.21200000      -0.12140000      -2.16120000
H        1.74380000      -0.22700000      -1.28210000
H        0.48680000      -3.67290000      -0.33200000
H        2.71930000      -3.43260000       0.81340000
H        2.92020000      -1.77410000       0.08720000
H        0.59950000      -2.65420000       1.95480000
H        1.64120000      -0.00870000       1.42400000
H        0.07450000      -0.35170000       2.12950000
