16
Properties=species:S:1:pos:R:3 gdb_77062=T pbc="F F F"
O        0.42230000       1.03620000       0.67460000
C        0.12940000      -0.19880000       0.09320000
C       -1.33940000      -0.76520000       0.14640000
C       -2.37650000       0.34730000       0.35270000
C       -3.74480000      -0.15020000       0.23130000
N       -4.81860000      -0.56410000       0.12710000
C       -1.19280000      -1.23110000      -1.34040000
C       -0.01670000      -0.25120000      -1.43010000
O        0.43310000       0.46310000      -2.28090000
H        0.68200000       1.63180000      -0.04040000
H        0.82350000      -0.97410000       0.44810000
H       -1.49230000      -1.56430000       0.87170000
H       -2.24050000       0.80230000       1.33870000
H       -2.23090000       1.15190000      -0.37810000
H       -0.87620000      -2.27410000      -1.42650000
H       -2.02860000      -1.05530000      -2.02060000
