10
Properties=species:S:1:pos:R:3 gdb_46=T pbc="F F F"
O        0.21580000       1.35390000      -0.10700000
C        0.01630000      -0.02830000      -0.02920000
C       -0.39080000      -0.71500000       1.24320000
C       -1.35120000      -0.64280000       0.06270000
H       -0.43640000       1.79060000       0.45010000
H        0.74980000      -0.52400000      -0.65620000
H        0.05960000      -1.66840000       1.49730000
H       -0.61370000      -0.08850000       2.10170000
H       -2.19820000       0.03060000       0.15410000
H       -1.56400000      -1.54640000      -0.49830000
