15
Properties=species:S:1:pos:R:3 gdb_61149=T pbc="F F F"
C       -0.28680000       1.37180000       0.09730000
N       -0.05990000      -0.05720000      -0.04080000
C       -0.01710000      -0.85110000       1.17460000
C       -1.29890000      -0.84120000       1.89470000
N       -2.30270000      -0.80980000       2.46530000
C        0.12390000      -0.72030000      -1.23270000
O        0.31860000      -1.92140000      -1.30300000
C        0.08190000       0.09850000      -2.43370000
C        0.06540000       0.68200000      -3.48500000
H        0.51620000       1.83390000       0.68480000
H       -0.31090000       1.83260000      -0.88860000
H       -1.24070000       1.56190000       0.60170000
H        0.23580000      -1.87450000       0.88610000
H        0.76230000      -0.47610000       1.85050000
H        0.05010000       1.19430000      -4.41640000
