18
Properties=species:S:1:pos:R:3 gdb_16345=T pbc="F F F"
O       -0.01990000       1.44120000       0.10510000
C        0.01760000       0.03170000      -0.13060000
C       -1.35960000      -0.55200000      -0.10070000
C       -2.03730000      -1.00790000       1.16960000
C       -1.89380000      -1.98250000       0.03540000
C       -2.98570000      -1.70440000      -1.00740000
C       -2.42030000      -0.26380000      -1.17250000
O       -3.35630000       0.76210000      -0.92500000
H       -0.40620000       1.56810000       0.97860000
H        0.46800000      -0.07780000      -1.12380000
H        0.67700000      -0.48000000       0.58790000
H       -1.36960000      -1.16900000       2.01140000
H       -3.01760000      -0.62100000       1.43490000
H       -1.33150000      -2.90310000       0.13420000
H       -2.90420000      -2.29870000      -1.91930000
H       -4.01360000      -1.75350000      -0.63690000
H       -1.94430000      -0.13380000      -2.15540000
H       -2.86060000       1.58710000      -0.87280000
