15
Properties=species:S:1:pos:R:3 gdb_127625=T pbc="F F F"
C        0.04670000       1.43830000      -0.03500000
N        0.02520000      -0.00200000       0.03920000
N       -0.02630000      -0.75580000      -1.11230000
C       -0.03490000      -2.03360000      -0.74200000
C        0.01130000      -2.14290000       0.66910000
C        0.04780000      -0.82780000       1.10460000
N        0.09390000      -0.85950000       2.47290000
C        0.08220000      -2.22020000       2.79080000
N        0.03380000      -3.00880000       1.75020000
H        0.96140000       1.84680000       0.40980000
H        0.01520000       1.70420000      -1.09120000
H       -0.82170000       1.87640000       0.47040000
H       -0.07330000      -2.80190000      -1.49930000
H        0.12860000      -0.09520000       3.12420000
H        0.11210000      -2.53890000       3.82290000
