19
Properties=species:S:1:pos:R:3 gdb_112956=T pbc="F F F"
N       -0.12490000       1.54740000      -0.32570000
C       -0.01280000       0.09030000      -0.22160000
C       -1.37720000      -0.50750000       0.11360000
C       -1.31970000      -1.91490000       0.76200000
C       -1.60470000      -1.19650000       2.11690000
N       -1.97150000       0.03080000       1.36570000
H       -1.54810000       0.90520000       1.66480000
H       -3.69920000      -0.43250000       2.05900000
C       -2.75910000      -1.76400000       2.93990000
O       -2.64030000      -2.69110000       3.69610000
O       -3.92340000      -1.14440000       2.70090000
H        0.79390000       1.96880000      -0.41280000
H       -0.63910000       1.80230000      -1.16420000
H        0.37990000      -0.40890000      -1.12420000
H        0.68770000      -0.13100000       0.59350000
H       -2.04680000      -0.40150000      -0.74910000
H       -2.12490000      -2.58240000       0.45220000
H       -0.36850000      -2.44370000       0.68980000
H       -0.72240000      -1.12000000       2.75890000
