22
Properties=species:S:1:pos:R:3 gdb_10068=T pbc="F F F"
C        0.16200000       1.49350000      -0.14320000
C        0.02190000      -0.03100000      -0.08540000
C       -1.42130000      -0.53800000       0.09720000
C       -2.27610000      -0.32110000      -1.16600000
C       -3.78540000      -0.50290000      -0.96800000
C       -1.42140000      -2.03450000       0.50620000
C       -0.80230000      -2.29210000       1.80110000
C       -0.29870000      -2.48600000       2.87580000
H        1.21370000       1.78290000      -0.23390000
H       -0.36920000       1.93050000      -0.99460000
H       -0.23160000       1.95860000       0.76750000
H        0.44210000      -0.47650000      -0.99850000
H        0.62830000      -0.40790000       0.74560000
H       -1.87780000       0.02560000       0.92320000
H       -2.09830000       0.69270000      -1.54090000
H       -1.92140000      -0.99920000      -1.95510000
H       -4.04930000      -1.52430000      -0.67620000
H       -4.16400000       0.17080000      -0.19120000
H       -4.32820000      -0.28110000      -1.89220000
H       -2.44930000      -2.41390000       0.52900000
H       -0.90120000      -2.61410000      -0.26930000
H        0.14580000      -2.66800000       3.82250000
