21
Properties=species:S:1:pos:R:3 gdb_74621=T pbc="F F F"
C        0.01290000       1.52740000       0.06710000
C       -0.06040000       0.03620000      -0.00200000
C        0.00280000      -0.75660000      -1.08110000
C       -0.02980000      -2.18570000      -0.66400000
C        0.90240000      -2.65690000       0.48920000
C        1.41970000      -1.48380000       1.30800000
C       -0.02580000      -0.84890000       1.22960000
C       -0.53380000      -2.25920000       0.75370000
C       -1.71700000      -3.02620000       1.25850000
H        0.91020000       1.86340000       0.60370000
H        0.03260000       1.97530000      -0.93050000
H       -0.84530000       1.94420000       0.61020000
H        0.10630000      -0.42790000      -2.10870000
H       -0.31160000      -2.96860000      -1.36030000
H        1.33840000      -3.64910000       0.44790000
H        1.64730000      -1.80400000       2.32830000
H        2.24840000      -0.88230000       0.91790000
H       -0.41930000      -0.42140000       2.15290000
H       -2.65600000      -2.50440000       1.03790000
H       -1.76740000      -4.01440000       0.78870000
H       -1.66790000      -3.17750000       2.34350000
