21
Properties=species:S:1:pos:R:3 gdb_57557=T pbc="F F F"
C        0.00650000       1.57230000       0.14350000
C        0.02670000       0.04430000       0.01900000
C        0.65940000      -0.60570000       1.25500000
O       -1.30790000      -0.45680000      -0.16280000
C        0.76850000      -0.40820000      -1.24900000
N        0.11490000       0.11870000      -2.44050000
C        0.69670000      -0.38750000      -3.67300000
C       -0.00680000       0.13980000      -4.84660000
N       -0.56970000       0.53720000      -5.77350000
H        1.01680000       1.96710000       0.29100000
H       -0.41140000       2.02400000      -0.75760000
H       -0.59410000       1.87550000       1.00940000
H        0.12300000      -0.30440000       2.16140000
H        0.61340000      -1.69560000       1.17940000
H        1.70590000      -0.30530000       1.37240000
H       -1.87220000      -0.05770000       0.50700000
H        1.80150000      -0.03980000      -1.21570000
H        0.81570000      -1.51270000      -1.24520000
H       -0.87020000      -0.12200000      -2.38970000
H        1.74520000      -0.06760000      -3.73190000
H        0.70620000      -1.49130000      -3.75140000
