21
Properties=species:S:1:pos:R:3 gdb_112575=T pbc="F F F"
C       -0.00520000       1.50970000       0.08480000
C       -0.00030000      -0.02070000       0.02420000
C        1.07800000      -0.68570000      -0.90730000
C        1.39300000      -1.70600000       0.21630000
C        2.84300000      -2.05880000       0.46770000
O        2.89840000      -2.88210000       1.62380000
C        0.67730000      -0.77340000       1.22640000
C       -1.33640000      -0.53270000      -0.25090000
C       -2.44160000      -0.95000000      -0.47860000
H        1.00250000       1.88470000       0.29110000
H       -0.34580000       1.93820000      -0.86320000
H       -0.67370000       1.86640000       0.87460000
H        0.73150000      -1.07020000      -1.86790000
H        1.91110000       0.00490000      -1.07750000
H        0.82030000      -2.62750000       0.07710000
H        3.25910000      -2.57510000      -0.41370000
H        3.42680000      -1.13300000       0.60960000
H        3.81940000      -3.09540000       1.79950000
H        1.38450000      -0.11570000       1.74240000
H        0.01370000      -1.22930000       1.96150000
H       -3.41670000      -1.32010000      -0.67740000
