17
Properties=species:S:1:pos:R:3 gdb_16236=T pbc="F F F"
C       -0.25170000       1.50660000       0.02200000
C        0.05970000       0.01920000      -0.02820000
O        1.04410000      -0.22320000      -1.07740000
C        2.09040000      -0.83000000      -0.46890000
N        2.04140000      -1.07440000       0.77440000
C        0.74750000      -0.58810000       1.21190000
C        0.63180000      -0.03880000       2.60990000
C        0.01450000      -1.37320000       2.26510000
H        0.63190000       2.07880000       0.31850000
H       -0.58550000       1.85690000      -0.95840000
H       -1.05070000       1.70450000       0.74330000
H       -0.83750000      -0.54560000      -0.30640000
H        2.92020000      -1.06450000      -1.12570000
H        1.53860000      -0.03600000       3.20310000
H       -0.02830000       0.80420000       2.78220000
H       -1.06730000      -1.43180000       2.18840000
H        0.49690000      -2.27150000       2.63240000
