14
Properties=species:S:1:pos:R:3 gdb_18954=T pbc="F F F"
O        0.04300000       0.01960000      -0.43090000
C        0.02400000       1.18960000      -0.11790000
N        1.06340000       1.85850000       0.47320000
C        2.50640000       1.61430000       0.22150000
C        2.60350000       2.72240000      -0.89840000
N        3.70330000       3.49590000      -0.24370000
C        2.89990000       2.97030000       0.90500000
C        1.55850000       3.22460000       0.15440000
H       -0.87980000       1.82800000      -0.20260000
H        2.97050000       0.63200000       0.28100000
H        2.48750000       2.61730000      -1.97770000
H        4.58840000       2.98870000      -0.31940000
H        3.12890000       3.16100000       1.95300000
H        0.93680000       4.11740000       0.14220000
