20
Properties=species:S:1:pos:R:3 gdb_40293=T pbc="F F F"
C       -0.03000000       1.52130000      -0.04510000
N        1.23820000       0.78460000       0.06830000
C       -0.02490000       0.03430000       0.01370000
C       -0.38940000      -0.69810000       1.29490000
C        0.60050000      -1.81080000       1.67060000
O        1.07870000      -2.62430000       0.60110000
C        0.24590000      -2.86510000      -0.49140000
O        0.35060000      -1.88540000      -1.49620000
C       -0.39130000      -0.70030000      -1.26500000
H       -0.30690000       2.09670000       0.83430000
H       -0.27980000       1.99850000      -0.99010000
H        1.71450000       0.74040000      -0.82940000
H       -0.41180000       0.00380000       2.13530000
H       -1.40660000      -1.09590000       1.19890000
H        1.50010000      -1.35530000       2.09320000
H        0.14810000      -2.44770000       2.44540000
H        0.60570000      -3.79010000      -0.94880000
H       -0.80810000      -2.98900000      -0.18620000
H       -1.47050000      -0.92990000      -1.24850000
H       -0.19920000      -0.06310000      -2.13440000
