23
Properties=species:S:1:pos:R:3 gdb_82555=T pbc="F F F"
C       -0.13820000       1.53950000      -0.03090000
C        0.00880000       0.02020000      -0.07530000
C        0.94490000      -0.53830000      -1.20260000
C        2.42490000      -0.47570000      -0.64190000
C        1.81910000      -1.46510000       0.38280000
C        2.03020000      -2.27770000       1.67730000
C        0.58920000      -1.79370000       2.09750000
C        0.79590000      -0.59300000       1.11870000
C        0.98590000      -2.03270000      -0.80070000
H        0.83540000       2.03240000       0.06870000
H       -0.61120000       1.92110000      -0.94250000
H       -0.75420000       1.85190000       0.81950000
H       -0.98480000      -0.42820000      -0.19510000
H        0.72970000      -0.22560000      -2.22620000
H        3.12860000      -0.90520000      -1.36010000
H        2.80890000       0.47420000      -0.25820000
H        2.20770000      -3.35210000       1.58230000
H        2.79380000      -1.84740000       2.33260000
H       -0.18350000      -2.49420000       1.77180000
H        0.42850000      -1.55750000       3.15180000
H        1.30730000       0.20240000       1.67500000
H        0.03480000      -2.53270000      -0.59500000
H        1.59490000      -2.64670000      -1.47010000
