19
Properties=species:S:1:pos:R:3 gdb_41317=T pbc="F F F"
C       -0.04450000       1.49940000       0.05130000
C        1.51650000       1.56810000      -0.00270000
C        1.58450000       0.02550000       0.03380000
C        2.53270000      -0.83170000      -0.80090000
C        2.65960000      -2.09420000       0.02610000
C        2.06140000      -2.00570000       1.21560000
C        1.42340000      -0.65930000       1.41490000
O       -0.03130000      -0.65820000       1.31870000
C        0.02720000      -0.04940000       0.01430000
H       -0.50810000       1.87830000       0.96420000
H       -0.53940000       1.94980000      -0.81290000
H        1.88780000       1.98270000      -0.94410000
H        2.01770000       2.08880000       0.81840000
H        2.14490000      -1.03150000      -1.80870000
H        3.50700000      -0.34150000      -0.94240000
H        3.19460000      -2.96700000      -0.33460000
H        2.02810000      -2.78770000       1.96550000
H        1.75390000      -0.13780000       2.32250000
H       -0.57360000      -0.58420000      -0.72720000
