14
Properties=species:S:1:pos:R:3 gdb_14820=T pbc="F F F"
O       -0.62230000       0.87050000       0.81400000
C        0.14580000       0.79140000      -0.10700000
C        1.43290000       1.59340000      -0.19450000
O        2.40340000       0.97660000      -1.05340000
C        2.38680000       2.07620000      -1.98410000
C        1.37940000       2.87230000      -1.10680000
C        0.11480000       3.24670000      -1.70200000
C       -0.93530000       3.54400000      -2.20570000
H       -0.02310000       0.11930000      -0.97720000
H        1.81260000       1.77770000       0.81640000
H        3.37440000       2.53550000      -2.09730000
H        2.00090000       1.78180000      -2.96540000
H        1.83740000       3.73150000      -0.61160000
H       -1.86590000       3.81030000      -2.64330000
