13
Properties=species:S:1:pos:R:3 gdb_128711=T pbc="F F F"
C       -0.21590000       1.39100000       0.02270000
O       -0.07210000      -0.03290000      -0.04290000
C        0.67820000      -0.51740000      -1.02840000
N        1.23610000       0.29140000      -1.86950000
O        2.00920000      -0.30760000      -2.87570000
C        2.16540000      -1.66160000      -2.96470000
O        2.83480000      -2.14000000      -3.83970000
C        1.45830000      -2.43300000      -1.92210000
N        0.74930000      -1.90330000      -0.99750000
H        0.75810000       1.87040000       0.15360000
H       -0.67750000       1.77350000      -0.89180000
H       -0.85600000       1.57670000       0.88450000
H        1.56540000      -3.51500000      -1.96890000
