18
Properties=species:S:1:pos:R:3 gdb_8705=T pbc="F F F"
C       -0.12940000       1.24770000       0.22540000
O       -0.02010000      -0.15040000       0.01500000
C        0.69370000      -0.56580000      -1.15470000
C        2.07330000       0.06380000      -1.30780000
C        0.77060000      -2.08790000      -1.00370000
O        1.29110000      -2.60730000      -2.21580000
C       -0.22420000      -0.24550000      -2.34750000
O       -0.00060000       0.57840000      -3.19380000
H        0.83770000       1.70510000       0.46860000
H       -0.55300000       1.77050000      -0.64230000
H       -0.80210000       1.37520000       1.07670000
H        2.62110000      -0.00240000      -0.36300000
H        2.62850000      -0.48060000      -2.07470000
H        2.00720000       1.10740000      -1.62020000
H        1.40450000      -2.32830000      -0.13830000
H       -0.24160000      -2.46490000      -0.79610000
H        1.29340000      -3.56680000      -2.16220000
H       -1.18450000      -0.80940000      -2.31950000
