19
Properties=species:S:1:pos:R:3 gdb_120016=T pbc="F F F"
C       -0.05030000       1.47750000       0.08580000
C        0.22170000      -0.01470000       0.12550000
O        0.28890000      -0.48970000      -1.22020000
C        0.53190000      -1.85640000      -1.31520000
C        0.72430000      -2.39250000      -2.75250000
C        0.77800000      -1.38370000      -3.87590000
O        2.06740000      -2.88160000      -2.37880000
C        1.98730000      -2.33980000      -1.12400000
O        2.82890000      -2.30730000      -0.28340000
H        0.75480000       2.00110000      -0.43700000
H       -0.99070000       1.68550000      -0.43230000
H       -0.11810000       1.87430000       1.10290000
H        1.16460000      -0.23250000       0.64360000
H       -0.58230000      -0.54720000       0.65940000
H       -0.17750000      -2.44290000      -0.71130000
H        0.09440000      -3.25090000      -2.99930000
H        1.39860000      -0.52810000      -3.60260000
H        1.18400000      -1.84810000      -4.77870000
H       -0.23000000      -1.01890000      -4.09480000
