20
Properties=species:S:1:pos:R:3 gdb_8217=T pbc="F F F"
C        0.03140000       1.46210000       0.25570000
C        0.14320000      -0.05320000       0.23870000
O        1.19440000      -0.61660000       0.44360000
C       -1.14110000      -0.82250000      -0.05350000
C       -1.00170000      -2.32850000       0.08860000
C       -0.87170000      -2.95100000       1.50700000
C       -1.77280000      -4.12260000       1.03170000
C       -2.25080000      -3.22510000      -0.14240000
H        1.02060000       1.90670000       0.37120000
H       -0.43860000       1.82910000      -0.66320000
H       -0.60870000       1.77960000       1.08710000
H       -1.93590000      -0.43670000       0.60130000
H       -1.45870000      -0.55400000      -1.07290000
H       -0.16930000      -2.67090000      -0.53310000
H        0.13340000      -3.17940000       1.86500000
H       -1.37810000      -2.33600000       2.25960000
H       -1.18000000      -4.97040000       0.67640000
H       -2.53000000      -4.49720000       1.72430000
H       -3.17570000      -2.69480000       0.11000000
H       -2.37480000      -3.68440000      -1.12670000
