23
Properties=species:S:1:pos:R:3 gdb_118549=T pbc="F F F"
C        0.01310000       1.46410000       0.11400000
C        0.04580000      -0.06480000       0.03790000
C        0.71990000      -0.57880000      -1.23840000
C        0.75170000      -2.10220000      -1.36390000
C        1.36430000      -2.58270000      -2.68070000
C        1.35040000      -4.10310000      -2.85420000
O        1.53990000      -2.63270000      -0.27340000
C        0.96760000      -3.47960000       0.59840000
O        1.55820000      -3.96110000       1.51910000
H        1.02560000       1.88180000       0.09340000
H       -0.53890000       1.89370000      -0.72940000
H       -0.46820000       1.80500000       1.03550000
H        0.57480000      -0.46300000       0.91080000
H       -0.97940000      -0.45610000       0.09070000
H        0.19680000      -0.18080000      -2.11740000
H        1.75020000      -0.20430000      -1.29160000
H       -0.27110000      -2.49910000      -1.27140000
H        0.80890000      -2.10820000      -3.49850000
H        2.39270000      -2.20690000      -2.73980000
H        0.32940000      -4.50010000      -2.81700000
H        1.77990000      -4.38750000      -3.81900000
H        1.93380000      -4.59700000      -2.07220000
H       -0.09850000      -3.67670000       0.37020000
