17
Properties=species:S:1:pos:R:3 gdb_75729=T pbc="F F F"
C       -0.13630000       1.57840000       0.00050000
C        0.05920000       0.05970000       0.00960000
C        0.86070000      -0.47850000      -1.18020000
O        0.65690000      -0.23390000      -2.34640000
C        1.94430000      -1.34100000      -0.64280000
C        1.94820000      -1.34990000       0.70350000
C        2.85320000      -2.05730000       1.65110000
C        0.84390000      -0.46690000       1.20930000
O        0.64240000      -0.21610000       2.37430000
H        0.82640000       2.09890000       0.00350000
H       -0.68190000       1.87900000      -0.89680000
H       -0.69480000       1.89080000       0.88580000
H       -0.92370000      -0.43100000       0.00490000
H        2.62970000      -1.86730000      -1.29760000
H        3.64860000      -2.59770000       1.13430000
H        3.29580000      -1.34230000       2.35270000
H        2.28180000      -2.76490000       2.26260000
