21
Properties=species:S:1:pos:R:3 gdb_119929=T pbc="F F F"
C       -0.25650000       1.54770000       1.16130000
C       -0.54390000       0.04420000       1.16340000
C       -1.23560000      -0.41570000      -0.12090000
N       -1.42430000      -1.86770000      -0.10140000
C       -2.64860000      -2.46580000       0.41070000
C       -3.81760000      -1.68190000       0.96440000
C       -2.33550000      -2.49640000      -1.06620000
C       -3.12460000      -1.69160000      -1.96660000
N       -3.74080000      -1.04630000      -2.70370000
H        0.23850000       1.85520000       2.08700000
H        0.39610000       1.82620000       0.32660000
H       -1.17920000       2.13080000       1.06760000
H        0.38610000      -0.52280000       1.28190000
H       -1.17300000      -0.21200000       2.02510000
H       -2.16980000       0.14540000      -0.26750000
H       -0.59970000      -0.19130000      -0.98530000
H       -2.46230000      -3.40240000       0.93520000
H       -4.08300000      -0.82100000       0.34870000
H       -4.69660000      -2.33150000       1.02110000
H       -3.59770000      -1.33160000       1.97800000
H       -1.96200000      -3.41050000      -1.52130000
