19
Properties=species:S:1:pos:R:3 gdb_65312=T pbc="F F F"
O       -0.09040000       1.37300000      -0.04570000
C       -0.01410000      -0.01140000      -0.01370000
C       -0.43490000      -0.73360000       1.26320000
C       -1.32280000      -0.78450000       0.06550000
C       -2.70280000      -0.12880000      -0.05880000
C       -3.25320000      -1.49330000      -0.57390000
C       -1.79570000      -2.02940000      -0.70490000
C        1.10350000      -0.56580000      -0.79370000
O        1.85750000       0.14790000      -1.42190000
H        0.63960000       1.64410000      -0.62560000
H        0.11450000      -1.62620000       1.55050000
H       -0.71150000      -0.07640000       2.08130000
H       -3.14020000       0.26340000       0.86230000
H       -2.71730000       0.66250000      -0.81270000
H       -3.82820000      -2.02770000       0.18540000
H       -3.83960000      -1.46120000      -1.49400000
H       -1.44400000      -2.06410000      -1.74000000
H       -1.58710000      -2.99420000      -0.23470000
H        1.21690000      -1.66830000      -0.77720000
