20
Properties=species:S:1:pos:R:3 gdb_84835=T pbc="F F F"
C        0.23780000       1.54350000      -0.10400000
C       -0.00230000       0.03710000       0.03810000
N        0.32510000      -0.62250000      -1.22490000
C        0.94870000      -1.72010000      -1.22530000
O        1.44840000      -2.44390000      -0.19340000
C        1.38940000      -1.87690000       1.10800000
C        1.29950000      -2.96940000       2.13770000
C        2.20700000      -0.63240000       1.32890000
C        0.69080000      -0.55880000       1.25660000
H        1.30120000       1.75350000      -0.25440000
H       -0.31100000       1.92970000      -0.96680000
H       -0.09250000       2.07580000       0.79410000
H       -1.08210000      -0.11310000       0.18180000
H        1.16240000      -2.23520000      -2.16040000
H        2.15080000      -3.65220000       2.05080000
H        1.30180000      -2.54270000       3.14430000
H        0.38060000      -3.55060000       2.01040000
H        2.69130000      -0.49480000       2.28950000
H        2.77040000      -0.25860000       0.48000000
H        0.17330000      -0.39500000       2.19830000
