18
Properties=species:S:1:pos:R:3 gdb_133762=T pbc="F F F"
C       -0.05090000       1.58530000      -0.01690000
C       -0.01820000       0.05710000       0.02860000
C        0.73410000      -0.47270000       1.25140000
O        0.03140000      -0.08960000       2.41030000
C        0.81400000       0.10830000       3.57620000
C        0.86540000      -2.00060000       1.19130000
F        1.56520000      -2.37360000       0.10530000
F        1.51230000      -2.48620000       2.26520000
F       -0.32670000      -2.60230000       1.13590000
H        0.95880000       2.00320000      -0.09920000
H       -0.62670000       1.93490000      -0.87840000
H       -0.51190000       1.98700000       0.88870000
H       -1.03630000      -0.34470000       0.06320000
H        0.45680000      -0.34640000      -0.87110000
H        1.76180000      -0.07630000       1.26470000
H        1.23900000      -0.82680000       3.95570000
H        1.63160000       0.82000000       3.38980000
H        0.14550000       0.52970000       4.33040000
