15
Properties=species:S:1:pos:R:3 gdb_20373=T pbc="F F F"
C       -0.21550000       1.31840000      -0.27740000
C        1.20830000       1.07280000       0.16830000
C        0.22710000      -0.06560000       0.11110000
N       -0.25620000      -0.68280000       1.31500000
C       -0.54480000      -0.16290000       2.52660000
N       -0.96630000      -1.10800000       3.35010000
C       -0.91480000      -2.21870000       2.56950000
N       -0.49270000      -2.01890000       1.33020000
H       -0.87590000       1.84230000       0.40480000
H       -0.41230000       1.50930000      -1.32610000
H        2.00100000       1.09300000      -0.57080000
H        1.50090000       1.43240000       1.14860000
H        0.33790000      -0.81780000      -0.65770000
H       -0.43750000       0.88420000       2.76450000
H       -1.19430000      -3.20160000       2.91800000
