17
Properties=species:S:1:pos:R:3 gdb_51348=T pbc="F F F"
O       -0.31400000      -0.00520000      -0.21180000
C       -0.01470000       1.14700000      -0.03320000
C        1.37330000       1.72060000      -0.21820000
C        1.39150000       2.82870000      -1.27650000
C        0.80640000       4.22210000      -0.93100000
C        2.10850000       4.67030000      -0.18840000
O        2.25470000       5.91060000      -0.93780000
C        1.78180000       4.93870000      -1.91530000
C        2.62640000       3.75610000      -1.34700000
H       -0.78150000       1.89330000       0.28170000
H        1.69800000       2.13070000       0.74870000
H        2.05010000       0.90480000      -0.48970000
H        1.07070000       2.43390000      -2.24710000
H       -0.21440000       4.52380000      -0.69710000
H        2.35290000       4.67530000       0.87290000
H        1.62690000       5.25600000      -2.94570000
H        3.66440000       3.52040000      -1.58150000
