15
Properties=species:S:1:pos:R:3 gdb_74167=T pbc="F F F"
N        0.08750000       1.31890000       0.07380000
C       -0.05660000      -0.04010000       0.01330000
C       -1.13520000      -0.83770000       0.07790000
C       -0.70650000      -2.22700000       0.02200000
N       -1.42390000      -3.26850000       0.05570000
O        0.68190000      -2.25280000      -0.08510000
C        1.18640000      -0.91840000      -0.05490000
C        2.02970000      -0.62290000      -1.21180000
C        2.72570000      -0.32880000      -2.14610000
H        0.89900000       1.69060000      -0.40040000
H       -0.74640000       1.86590000      -0.07950000
H       -2.17340000      -0.55200000       0.14820000
H       -0.84380000      -4.10510000      -0.01180000
H        1.78230000      -0.79220000       0.86150000
H        3.34310000      -0.09330000      -2.97830000
