17
Properties=species:S:1:pos:R:3 gdb_37373=T pbc="F F F"
C       -0.01400000       1.53470000       0.00530000
O        1.30140000       2.07790000      -0.06350000
C        2.12690000       1.47650000      -1.05710000
C        2.05100000      -0.05340000      -0.96740000
O        0.68070000      -0.41560000      -1.17790000
C        0.03650000       0.00140000       0.03230000
C        1.00300000      -0.46860000       1.11890000
O        1.63500000      -1.71360000       0.81630000
C        2.31180000      -0.50420000       0.46940000
H       -0.46610000       1.95180000       0.91130000
H       -0.61350000       1.84560000      -0.86360000
H        1.81090000       1.77970000      -2.06670000
H        3.13910000       1.85390000      -0.87780000
H        2.65500000      -0.54650000      -1.73330000
H       -0.95930000      -0.44820000       0.06030000
H        0.84850000      -0.22960000       2.16640000
H        3.24910000      -0.29480000       0.97510000
