19
Properties=species:S:1:pos:R:3 gdb_98455=T pbc="F F F"
O        0.08880000       1.42150000      -0.00500000
C        0.05720000       0.02590000      -0.05810000
C       -1.37150000      -0.48910000      -0.00610000
O       -2.28980000       0.30580000       0.03780000
C       -1.61150000      -1.98910000       0.02300000
O       -0.39750000      -2.61050000      -0.32570000
C       -2.30450000      -2.41130000       1.36620000
C       -3.67010000      -2.39770000       0.63130000
C       -2.91700000      -2.40480000      -0.72480000
H       -0.84170000       1.69580000       0.02450000
H        0.52340000      -0.36210000      -0.97670000
H        0.61980000      -0.42680000       0.77310000
H       -0.50170000      -3.56110000      -0.22140000
H       -1.98490000      -3.42280000       1.63860000
H       -2.17210000      -1.75690000       2.23040000
H       -4.34390000      -3.23260000       0.83110000
H       -4.20170000      -1.45880000       0.78670000
H       -3.26980000      -1.73070000      -1.50680000
H       -2.80310000      -3.41150000      -1.13890000
