11
Properties=species:S:1:pos:R:3 gdb_3752=T pbc="F F F"
C       -0.00650000       1.45240000      -0.00210000
N        0.01370000       0.00340000      -0.03660000
C        0.06320000      -0.83980000      -1.10840000
N        0.06830000      -2.08670000      -0.77920000
O        0.01800000      -2.08020000       0.63790000
C       -0.01590000      -0.79440000       1.10360000
O       -0.06120000      -0.46030000       2.25450000
H        0.89930000       1.86850000      -0.45210000
H       -0.88480000       1.84510000      -0.52190000
H       -0.05130000       1.74070000       1.04940000
H        0.09510000      -0.50550000      -2.13510000
