16
Properties=species:S:1:pos:R:3 gdb_20193=T pbc="F F F"
C        0.00900000       1.54010000       0.00300000
O        1.25760000       2.20550000      -0.07530000
C        2.21550000       1.62450000      -0.93510000
C        2.39650000       0.13940000      -0.64440000
O        2.42880000      -0.09990000       0.79470000
C        1.18470000      -0.79100000       0.70580000
C        0.09190000       0.02470000       0.05450000
C        1.11330000      -0.69350000      -0.79570000
H       -0.47520000       1.93870000       0.90090000
H       -0.62160000       1.81140000      -0.86280000
H        1.94850000       1.74760000      -2.00010000
H        3.14270000       2.17550000      -0.74990000
H        3.28390000      -0.27370000      -1.13290000
H        1.01410000      -1.61080000       1.39400000
H       -0.87960000      -0.46440000       0.08540000
H        0.90070000      -1.42400000      -1.56430000
