21
Properties=species:S:1:pos:R:3 gdb_75500=T pbc="F F F"
C       -0.24130000       1.56220000       0.07120000
C        0.00670000       0.07780000       0.01510000
C        0.07680000      -0.58680000      -1.14350000
C        0.25840000      -2.07280000      -1.36620000
C        1.09790000      -2.88910000      -0.35790000
C        0.89070000      -2.54820000       1.11590000
C       -0.49410000      -1.98730000       1.50360000
C        0.20700000      -0.61650000       1.34680000
O        1.50600000      -1.27020000       1.42360000
H        0.59200000       2.08370000       0.55990000
H       -0.37240000       1.99000000      -0.92620000
H       -1.13900000       1.79440000       0.65940000
H       -0.06400000      -0.01360000      -2.05890000
H       -0.74340000      -2.52380000      -1.43630000
H        0.69360000      -2.22020000      -2.36140000
H        0.89180000      -3.95480000      -0.52030000
H        2.16510000      -2.73980000      -0.55870000
H        1.29660000      -3.34120000       1.75390000
H       -1.34420000      -2.20330000       0.85540000
H       -0.75590000      -2.20140000       2.54120000
H        0.07980000       0.08840000       2.17490000
