18
Properties=species:S:1:pos:R:3 gdb_79414=T pbc="F F F"
C       -0.16880000       1.62860000       0.12670000
C        0.00010000       0.11460000       0.01230000
N        0.52330000      -0.65160000      -1.19290000
C        1.66230000      -0.38070000      -2.18400000
C        2.53560000       0.29610000      -1.11790000
C        1.80890000      -0.94980000      -0.46240000
C        2.24820000      -1.77660000      -1.70920000
C        1.11320000      -0.60120000       0.87320000
O        1.30690000      -0.74820000       2.03720000
H        0.76350000       2.19300000       0.08340000
H       -0.82590000       1.99050000      -0.67050000
H       -0.64910000       1.85790000       1.08390000
H       -0.97720000      -0.33320000       0.22890000
H        1.47510000      -0.07560000      -3.21600000
H        3.62070000       0.22240000      -1.22840000
H        2.24090000       1.28790000      -0.78840000
H        1.62410000      -2.64320000      -1.92200000
H        3.31270000      -1.94350000      -1.88010000
