15
Properties=species:S:1:pos:R:3 gdb_44666=T pbc="F F F"
O       -0.04000000       0.06990000       0.14490000
C       -0.02460000       1.27180000       0.13300000
C       -1.26720000       2.20050000       0.16390000
N       -0.69990000       3.52680000       0.50750000
C       -0.38990000       3.54490000       1.90030000
N        0.83450000       3.44890000       2.23690000
C        1.55040000       3.30930000       0.98570000
C        0.62880000       3.57890000      -0.14740000
C        1.17290000       2.17100000      -0.01590000
H       -1.73770000       2.22970000      -0.82490000
H       -2.01080000       1.86500000       0.89020000
H       -1.21060000       3.59670000       2.60840000
H        2.59550000       3.59020000       0.98640000
H        0.76410000       4.24120000      -0.99400000
H        1.99890000       1.79800000      -0.60870000
