20
Properties=species:S:1:pos:R:3 gdb_86574=T pbc="F F F"
C       -1.46310000       0.71860000       0.53970000
C       -0.46760000      -0.41880000       0.33090000
C        0.35960000      -0.31090000      -0.97890000
C        1.55050000       0.15150000      -0.08840000
N        0.81460000      -0.33580000       1.09520000
H        2.18430000      -1.72470000       0.93770000
C        0.91120000       0.39000000       2.34980000
C        2.88290000      -0.55620000      -0.32140000
O        3.71990000      -0.16940000      -1.09150000
O        3.00400000      -1.68470000       0.39750000
H       -1.01220000       1.69810000       0.34880000
H       -2.30390000       0.59750000      -0.15090000
H       -1.86700000       0.72050000       1.55700000
H       -0.97360000      -1.37760000       0.49150000
H        0.53960000      -1.26910000      -1.46850000
H        0.00730000       0.41200000      -1.71430000
H        1.71580000       1.23530000      -0.12210000
H        0.61370000       1.44730000       2.27340000
H        0.28400000      -0.09180000       3.10640000
H        1.94720000       0.35470000       2.70230000
