22
Properties=species:S:1:pos:R:3 gdb_120763=T pbc="F F F"
C       -0.17430000       0.80840000       0.24700000
C       -0.00510000      -0.29890000      -0.78990000
O       -1.19380000      -1.03390000      -1.06090000
C       -1.56380000      -1.93060000      -0.05860000
C       -2.59430000      -1.54870000       0.98690000
C       -2.94440000      -2.54810000      -0.08910000
N       -4.00730000      -2.30050000      -1.02460000
C       -4.10430000      -1.06340000      -1.79050000
C       -3.73280000      -2.34360000      -2.45930000
H        0.76090000       1.37020000       0.34340000
H       -0.96230000       1.50460000      -0.05570000
H       -0.42890000       0.40460000       1.23010000
H        0.29040000       0.12770000      -1.75370000
H        0.79090000      -0.99310000      -0.47740000
H       -0.74720000      -2.58400000       0.25660000
H       -2.47830000      -1.87580000       2.01500000
H       -3.03460000      -0.56410000       0.86960000
H       -2.95890000      -3.58990000       0.22250000
H       -5.11360000      -0.67010000      -1.88620000
H       -3.31960000      -0.32180000      -1.69380000
H       -2.69720000      -2.43910000      -2.77460000
H       -4.45690000      -2.88810000      -3.06000000
