16
Properties=species:S:1:pos:R:3 gdb_104572=T pbc="F F F"
O        0.10820000       1.37240000       0.21160000
C        0.07420000      -0.02400000      -0.00500000
C       -1.35990000      -0.54650000      -0.03170000
C       -1.53960000      -2.09260000       0.12610000
C       -2.19420000      -1.76140000       1.49170000
O       -2.61880000      -2.38750000       2.41930000
N       -2.09630000      -0.40750000       1.23620000
C       -2.16530000       0.04980000      -1.17410000
O       -1.73280000       0.84960000      -1.96760000
H       -0.21880000       1.77700000      -0.60150000
H        0.58110000      -0.31020000      -0.93790000
H        0.61010000      -0.48950000       0.82860000
H       -2.20760000      -2.57430000      -0.59130000
H       -0.60410000      -2.65120000       0.19040000
H       -2.15500000       0.39470000       1.84850000
H       -3.22210000      -0.29490000      -1.21270000
