20
Properties=species:S:1:pos:R:3 gdb_107102=T pbc="F F F"
C        0.06690000       1.52630000       0.05370000
C       -0.09220000       0.03300000      -0.26420000
C       -1.49590000      -0.45260000      -0.03610000
C       -1.97270000      -1.01270000       1.24690000
N       -1.84940000      -1.93310000       0.09510000
C       -3.06210000      -1.65860000      -0.75900000
C       -2.68440000      -0.17770000      -0.96500000
C       -3.00870000      -2.54170000      -1.98720000
O       -3.06380000      -2.14580000      -3.12250000
H        1.09290000       1.85740000      -0.13090000
H       -0.59630000       2.13710000      -0.56800000
H       -0.17270000       1.73560000       1.10140000
H        0.18940000      -0.15550000      -1.30780000
H        0.59060000      -0.56040000       0.35480000
H       -1.23190000      -1.20640000       2.01720000
H       -2.96620000      -0.77510000       1.62380000
H       -4.00550000      -1.87090000      -0.23490000
H       -3.39900000       0.58270000      -0.64060000
H       -2.39960000       0.01530000      -2.00110000
H       -2.90170000      -3.62250000      -1.74770000
