15
Properties=species:S:1:pos:R:3 gdb_4850=T pbc="F F F"
C        0.14860000       1.30560000      -0.22640000
N       -0.34230000       0.03690000       0.30670000
C        0.50320000      -0.70040000       1.12860000
N        0.73700000      -1.98200000       1.03410000
C        1.54970000      -2.29870000       2.12190000
C        1.80470000      -1.17410000       2.84580000
O        2.52450000      -0.87170000       3.95670000
N        1.14010000      -0.14210000       2.21250000
H        1.09980000       1.22050000      -0.77360000
H       -0.60720000       1.71930000      -0.89810000
H        0.28640000       2.02990000       0.58340000
H       -0.68720000      -0.57960000      -0.41820000
H        1.90360000      -3.30320000       2.29270000
H        2.93990000      -1.67910000       4.27430000
H        1.06060000       0.79720000       2.56210000
