17
Properties=species:S:1:pos:R:3 gdb_85993=T pbc="F F F"
C       -0.03180000       1.21180000      -0.60440000
N        0.06400000      -0.14560000      -0.13720000
C       -0.98190000      -1.04090000       0.38520000
C        0.17120000      -1.97820000       0.86620000
O        0.23780000      -2.30740000       2.22600000
C        0.34250000      -3.23150000       0.01430000
O       -0.14200000      -3.38640000      -1.07530000
C        1.10110000      -0.82670000       0.44710000
N        2.32790000      -0.66930000       0.72310000
H        0.95380000       1.54410000      -0.94220000
H       -0.71960000       1.27370000      -1.45390000
H       -0.38170000       1.90030000       0.17820000
H       -1.54930000      -0.62320000       1.22390000
H       -1.64210000      -1.45560000      -0.37990000
H        1.06540000      -1.93790000       2.56110000
H        0.96940000      -4.00380000       0.50920000
H        2.68830000       0.24240000       0.44030000
