17
Properties=species:S:1:pos:R:3 gdb_85181=T pbc="F F F"
C        0.36200000       1.50220000      -0.21350000
C        0.00760000       0.06230000       0.08210000
O        0.74460000      -0.87240000      -0.79200000
C        1.34270000      -1.48940000       0.26650000
O        2.13260000      -2.37940000       0.24860000
C        0.62480000      -0.64110000       1.32430000
C        1.48500000       0.13370000       2.28670000
C        2.77770000      -0.38930000       2.75300000
O        2.71050000       0.66060000       1.78050000
H        1.43390000       1.67390000      -0.10050000
H        0.06600000       1.75720000      -1.23500000
H       -0.17500000       2.16780000       0.47080000
H       -1.06340000      -0.12270000      -0.03800000
H       -0.10740000      -1.23350000       1.88260000
H        0.94230000       0.81800000       2.94080000
H        3.15060000      -0.08990000       3.73060000
H        3.12760000      -1.34570000       2.37260000
