13
Properties=species:S:1:pos:R:3 gdb_13649=T pbc="F F F"
C       -0.12980000       1.50070000      -0.13310000
C       -0.01840000       0.01260000       0.05100000
O        1.26500000      -0.58090000      -0.12110000
C        0.69040000      -0.62050000       1.19320000
C        1.33410000       0.15580000       2.21410000
C        1.86440000       0.78250000       3.10140000
C        2.46270000       1.49690000       4.09840000
N        2.96910000       2.10740000       4.94730000
H        0.69370000       2.02180000       0.35940000
H       -0.10960000       1.74680000      -1.19930000
H       -1.07620000       1.86440000       0.27990000
H       -0.83240000      -0.57920000      -0.37180000
H        0.36660000      -1.61000000       1.51490000
