19
Properties=species:S:1:pos:R:3 gdb_37347=T pbc="F F F"
C       -0.01650000       1.53700000      -0.03550000
C        1.49320000       1.86620000      -0.00910000
C        2.05420000       1.55590000       1.39950000
C        1.47040000       0.28630000       1.98360000
C        0.53600000      -0.43730000       1.36300000
C        0.02570000      -0.00890000      -0.00250000
C        1.14470000      -0.30970000      -1.00930000
O        1.21200000       0.57620000      -2.13330000
C        2.04990000       0.84140000      -0.99500000
H       -0.55470000       1.95070000       0.82020000
H       -0.47360000       1.89630000      -0.95770000
H        1.71440000       2.89900000      -0.29360000
H        3.15040000       1.47680000       1.36610000
H        1.84580000       2.39610000       2.07670000
H        1.83850000      -0.01490000       2.96150000
H        0.14500000      -1.34490000       1.81350000
H       -0.92870000      -0.47920000      -0.25080000
H        1.47620000      -1.32910000      -1.18600000
H        3.11960000       0.76140000      -1.17210000
