17
Properties=species:S:1:pos:R:3 gdb_30950=T pbc="F F F"
C       -0.27730000       1.55600000      -0.06270000
C        0.12810000       0.07490000       0.04520000
C        0.82980000      -0.44870000      -1.16070000
C        2.08930000      -0.90460000      -1.31460000
O        3.10820000      -0.96080000      -0.41780000
N        2.25840000      -1.30880000      -2.64390000
C        1.10110000      -1.05950000      -3.38100000
O        0.90950000      -1.23990000      -4.56710000
N        0.22790000      -0.55850000      -2.42850000
H        0.60200000       2.18940000      -0.21070000
H       -0.95570000       1.72740000      -0.90510000
H       -0.78970000       1.88360000       0.84690000
H        0.79870000      -0.06210000       0.89890000
H       -0.76670000      -0.52970000       0.25020000
H        3.27120000      -1.87910000      -0.16830000
H        3.13600000      -1.52630000      -3.08310000
H       -0.69940000      -0.25890000      -2.67250000
