17
Properties=species:S:1:pos:R:3 gdb_23019=T pbc="F F F"
C       -0.17010000       1.41990000      -0.11350000
C       -0.05540000      -0.08070000      -0.09650000
N       -0.12100000      -0.79300000       0.96390000
O       -0.34360000      -0.01150000       2.09810000
C        0.12670000      -0.80940000      -1.38910000
C        0.01630000      -2.30410000      -1.47480000
N       -1.01110000      -1.46500000      -2.04340000
C       -2.32510000      -1.44320000      -1.60130000
O       -2.97790000      -2.42150000      -1.33840000
H        0.51750000       1.86340000       0.61250000
H        0.03910000       1.82390000      -1.10580000
H       -1.17850000       1.72810000       0.18480000
H       -0.35640000      -0.66850000       2.80280000
H        0.78620000      -0.30180000      -2.09100000
H        0.64220000      -2.83820000      -2.18390000
H       -0.23270000      -2.83600000      -0.56280000
H       -2.73930000      -0.41650000      -1.59730000
