15
Properties=species:S:1:pos:R:3 gdb_61689=T pbc="F F F"
C       -0.11760000       1.59020000      -0.08910000
C       -0.01480000       0.04230000      -0.03360000
C        0.75280000      -0.42670000       1.24360000
C        2.18890000       0.07270000       1.29770000
O        2.65680000       0.63010000       2.25400000
C       -1.37050000      -0.53550000       0.00330000
N       -2.43910000      -0.96770000       0.07050000
C        0.67360000      -0.45220000      -1.24250000
N        1.24420000      -0.81810000      -2.17750000
H        0.88250000       2.02800000      -0.12590000
H       -0.67450000       1.90710000      -0.97220000
H       -0.63050000       1.95060000       0.80520000
H        0.22190000      -0.07660000       2.13140000
H        0.77380000      -1.52310000       1.25920000
H        2.79500000      -0.13430000       0.38960000
