16
Properties=species:S:1:pos:R:3 gdb_8697=T pbc="F F F"
O        0.07400000       1.45430000       0.00330000
C        0.01250000       0.04300000      -0.00670000
C       -1.43920000      -0.50340000       0.00090000
O       -1.39280000      -1.92140000      -0.02110000
C       -2.20070000      -0.03610000       1.26640000
O       -1.70270000      -0.71890000       2.41160000
C       -2.13290000      -0.00830000      -1.19040000
C       -2.66780000       0.47550000      -2.15270000
H       -0.36340000       1.76220000      -0.79980000
H        0.53570000      -0.39950000      -0.86440000
H        0.51850000      -0.30120000       0.90190000
H       -1.33790000      -2.17870000       0.91120000
H       -2.12310000       1.05090000       1.36630000
H       -3.25240000      -0.31680000       1.17210000
H       -0.92020000      -0.25470000       2.72550000
H       -3.15930000       0.87020000      -3.00810000
