20
Properties=species:S:1:pos:R:3 gdb_97405=T pbc="F F F"
C        0.34500000       1.08870000      -0.26370000
N       -0.21540000      -0.11280000       0.31840000
C        0.55250000      -0.83540000       1.00110000
O        0.08910000      -1.96820000       1.58350000
C        1.03780000      -2.70420000       2.31340000
C        0.69600000      -4.14300000       2.57690000
C        1.83800000      -3.78460000       1.64060000
C        1.70450000      -4.03700000       0.15790000
O        3.14160000      -3.89050000       2.15130000
H        1.41330000       1.24140000      -0.03810000
H        0.22450000       1.06030000      -1.35270000
H       -0.21010000       1.96340000       0.09390000
H        1.61760000      -0.63300000       1.19060000
H        1.53660000      -2.14760000       3.10310000
H        0.94000000      -4.54010000       3.55540000
H       -0.22130000      -4.51420000       2.13320000
H        0.68990000      -3.82800000      -0.18840000
H        2.40070000      -3.40220000      -0.39950000
H        1.93650000      -5.08230000      -0.07800000
H        3.38740000      -4.82270000       2.14570000
