17
Properties=species:S:1:pos:R:3 gdb_31289=T pbc="F F F"
C        0.24420000       1.62010000       0.21390000
C       -0.10030000       0.14920000      -0.07090000
C        0.57060000      -0.37410000      -1.30070000
C       -0.02050000      -0.82580000      -2.47030000
N        1.04080000      -1.18610000      -3.29110000
C        2.18240000      -0.94260000      -2.60120000
N        1.93750000      -0.45520000      -1.40450000
C       -1.36480000      -0.94550000      -2.86400000
C       -2.51710000      -1.05020000      -3.20370000
H        1.32630000       1.74710000       0.30330000
H       -0.10610000       2.26840000      -0.59550000
H       -0.22250000       1.95490000       1.14540000
H        0.20720000      -0.46270000       0.78620000
H       -1.18300000       0.02660000      -0.17790000
H        0.95620000      -1.56090000      -4.22130000
H        3.15990000      -1.14000000      -3.01610000
H       -3.53430000      -1.13840000      -3.49450000
