25
Properties=species:S:1:pos:R:3 gdb_118117=T pbc="F F F"
C        0.27070000       1.54210000       0.13980000
C       -0.02830000       0.04640000       0.00000000
C        0.65620000      -0.58360000      -1.21900000
C        0.46220000      -2.10500000      -1.36490000
C       -1.00150000      -2.50070000      -1.61620000
C        1.34400000      -2.64250000      -2.48080000
C        2.80590000      -2.96340000      -2.23130000
C        1.80940000      -4.06890000      -2.48490000
O        1.38510000      -4.87540000      -1.42140000
H        1.34620000       1.72340000       0.24640000
H       -0.06980000       2.09730000      -0.74150000
H       -0.22760000       1.97070000       1.01530000
H        0.29780000      -0.47860000       0.90810000
H       -1.11330000      -0.09840000      -0.06100000
H        0.29880000      -0.08560000      -2.13260000
H        1.73300000      -0.37470000      -1.16460000
H        0.78270000      -2.58320000      -0.43110000
H       -1.09270000      -3.58720000      -1.69710000
H       -1.65820000      -2.16850000      -0.80700000
H       -1.37240000      -2.05730000      -2.54880000
H        1.11050000      -2.23250000      -3.46180000
H        3.54450000      -2.73280000      -2.99160000
H        3.15770000      -2.85910000      -1.20930000
H        1.85770000      -4.58140000      -3.44600000
H        2.11520000      -5.45280000      -1.17640000
