21
Properties=species:S:1:pos:R:3 gdb_109876=T pbc="F F F"
C       -0.03880000       1.42280000      -0.08370000
O       -0.06480000       0.06060000       0.28510000
C       -1.29390000      -0.56680000       0.05900000
C       -1.59180000      -1.24870000      -1.34750000
C       -0.49050000      -1.23740000      -2.39820000
C       -1.77930000      -2.56030000      -0.56790000
O       -0.53070000      -2.83430000       0.07850000
C       -1.44430000      -1.93730000       0.72910000
C       -1.83530000      -2.23160000       2.14060000
H        0.95530000       1.80470000       0.16040000
H       -0.21770000       1.56770000      -1.15850000
H       -0.79010000       2.00580000       0.47210000
H       -2.12690000       0.09460000       0.34410000
H       -2.53880000      -0.88170000      -1.75630000
H        0.44850000      -1.58600000      -1.96470000
H       -0.74980000      -1.89160000      -3.23790000
H       -0.33210000      -0.23180000      -2.80030000
H       -2.42300000      -3.40540000      -0.78690000
H       -1.03150000      -1.94600000       2.82790000
H       -2.73370000      -1.67230000       2.42150000
H       -2.03050000      -3.29950000       2.26850000
