21
Properties=species:S:1:pos:R:3 gdb_107966=T pbc="F F F"
C        0.02970000       1.52250000       0.07500000
C       -0.06930000      -0.00590000      -0.00450000
C       -1.48650000      -0.51590000       0.05330000
C       -2.54270000      -0.32420000       1.17090000
C       -3.26950000      -1.17860000       0.11620000
C       -2.58490000      -0.43870000      -1.07790000
C       -2.11300000      -1.74900000      -1.74500000
C       -1.95950000      -1.98130000      -0.22760000
O       -1.42770000      -3.06540000       0.44650000
H        1.07250000       1.85220000       0.03930000
H       -0.50070000       1.99740000      -0.75710000
H       -0.40760000       1.89980000       1.00530000
H        0.40580000      -0.35940000      -0.92900000
H        0.49910000      -0.45660000       0.81940000
H       -2.32770000      -0.80540000       2.12980000
H       -2.92100000       0.69160000       1.32510000
H       -4.28830000      -1.57060000       0.11900000
H       -2.95330000       0.46990000      -1.54980000
H       -2.88080000      -2.33630000      -2.26100000
H       -1.19510000      -1.70670000      -2.33950000
H       -1.97020000      -3.83940000       0.26020000
