18
Properties=species:S:1:pos:R:3 gdb_106884=T pbc="F F F"
O        0.11760000       1.28740000      -0.32530000
C        0.04280000       0.00620000       0.28270000
C       -1.36860000      -0.50890000       0.28380000
C       -2.50560000      -0.09330000       1.23150000
C       -3.05920000      -1.55490000       1.18480000
C       -1.92530000      -1.93970000       0.22920000
N       -1.88210000      -1.06980000      -0.95090000
C       -1.19360000      -3.21890000       0.20010000
O       -1.38930000      -4.11840000       0.98270000
H       -0.14120000       1.17350000      -1.24670000
H        0.69960000      -0.71890000      -0.21790000
H        0.40010000       0.13650000       1.30900000
H       -2.15050000       0.18910000       2.22470000
H       -3.15540000       0.70190000       0.85380000
H       -2.97940000      -2.07150000       2.14200000
H       -4.06970000      -1.69620000       0.78960000
H       -2.81050000      -0.72970000      -1.19700000
H       -0.42870000      -3.28800000      -0.60310000
