17
Properties=species:S:1:pos:R:3 gdb_28790=T pbc="F F F"
C        0.00790000       1.50790000       0.07680000
C       -0.01610000       0.02180000      -0.00180000
C       -0.11480000      -0.85190000      -1.05400000
N       -0.07980000      -2.18830000      -0.64930000
C        0.04270000      -2.08790000       0.63680000
O        0.05660000      -3.00990000       1.62680000
C        0.36050000      -2.28900000       2.83950000
C        0.06280000      -0.78650000       2.55190000
N        0.11400000      -0.81600000       1.10710000
H        0.94350000       1.88770000       0.50710000
H       -0.08760000       1.92740000      -0.92760000
H       -0.81500000       1.90990000       0.68150000
H       -0.19550000      -0.59820000      -2.10060000
H       -0.24950000      -2.70170000       3.64400000
H        1.42020000      -2.43540000       3.07640000
H       -0.92460000      -0.47720000       2.91690000
H        0.81880000      -0.13250000       2.99470000
