18
Properties=species:S:1:pos:R:3 gdb_15820=T pbc="F F F"
O       -0.15150000       1.44760000       0.05410000
C        0.02240000       0.03840000       0.00220000
C       -1.36380000      -0.58630000       0.01970000
C       -1.34460000      -2.10250000      -0.03090000
O       -0.30510000      -2.73170000      -0.08020000
C       -2.67260000      -2.78180000      -0.01710000
C       -2.80050000      -4.08020000      -0.80210000
C       -2.75960000      -4.13000000       0.68520000
H        0.71940000       1.85470000       0.04310000
H        0.55530000      -0.27380000      -0.90700000
H        0.60420000      -0.33290000       0.85760000
H       -1.90920000      -0.26870000       0.91880000
H       -1.95740000      -0.21110000      -0.82500000
H       -3.54330000      -2.13740000       0.02850000
H       -3.74110000      -4.25880000      -1.31010000
H       -1.90990000      -4.39080000      -1.33610000
H       -1.84150000      -4.47400000       1.14740000
H       -3.67110000      -4.34400000       1.23100000
