23
Properties=species:S:1:pos:R:3 gdb_119045=T pbc="F F F"
C       -1.17910000      -0.01430000      -0.57010000
C       -1.47860000      -0.72200000       0.75750000
C       -0.25360000      -0.92700000       1.62910000
C        0.43040000       0.33490000       2.11920000
O       -0.53780000       1.22670000       2.62640000
C        0.02280000       2.41630000       3.12620000
O       -0.37010000      -1.95740000       2.62790000
C        0.57740000      -2.14600000       1.57110000
C        0.36790000      -3.30790000       0.63270000
H       -0.44110000      -0.56490000      -1.16330000
H       -2.08920000       0.07600000      -1.17050000
H       -0.79360000       0.99640000      -0.40560000
H       -2.19750000      -0.13130000       1.33370000
H       -1.94580000      -1.69270000       0.57460000
H        1.15910000       0.06380000       2.89890000
H        0.98750000       0.80900000       1.29160000
H       -0.79930000       3.04170000       3.48230000
H        0.71130000       2.22250000       3.96390000
H        0.57750000       2.96580000       2.34830000
H        1.61420000      -2.03800000       1.90280000
H       -0.66160000      -3.37240000       0.27710000
H        1.03320000      -3.22100000      -0.23330000
H        0.60800000      -4.24640000       1.14350000
