20
Properties=species:S:1:pos:R:3 gdb_116102=T pbc="F F F"
C        0.00310000       1.37250000       0.14060000
O       -0.08600000      -0.02170000      -0.06020000
C        0.63380000      -0.50920000      -1.17750000
C        2.13920000      -0.67910000      -0.89360000
N        2.86570000      -1.30550000      -1.99660000
C        2.32640000      -2.62070000      -2.35830000
C        0.81840000      -2.59920000      -2.61600000
O        0.31220000      -3.11190000      -3.58650000
C        0.01180000      -1.86140000      -1.55500000
H        1.02090000       1.70140000       0.39450000
H       -0.32920000       1.93050000      -0.74830000
H       -0.65710000       1.61750000       0.97600000
H        0.51710000       0.18880000      -2.02590000
H        2.60360000       0.28800000      -0.67780000
H        2.25650000      -1.30250000       0.00290000
H        2.84580000      -0.69850000      -2.81090000
H        2.83320000      -3.00350000      -3.24690000
H        2.52970000      -3.31460000      -1.52930000
H        0.00290000      -2.48030000      -0.64620000
H       -1.01990000      -1.74710000      -1.89400000
