20
Properties=species:S:1:pos:R:3 gdb_80623=T pbc="F F F"
O        0.15470000       1.38530000      -0.10660000
C        0.02830000      -0.01720000       0.02420000
C        0.53140000      -0.62280000       1.35270000
C       -0.66270000      -0.35050000       2.31930000
C       -1.39390000      -1.35260000       1.37880000
C       -0.01960000      -2.07640000       1.25530000
C       -1.42230000      -0.56410000       0.07700000
C       -2.57900000       0.18100000      -0.46190000
N       -2.13490000      -1.08620000      -1.08830000
H       -0.33400000       1.79680000       0.61440000
H        0.57990000      -0.42600000      -0.82980000
H        1.56420000      -0.40370000       1.62280000
H       -0.48910000      -0.75510000       3.31860000
H       -1.06060000       0.66740000       2.40230000
H       -2.30900000      -1.86990000       1.66410000
H        0.17500000      -2.64580000       0.34170000
H        0.22670000      -2.67580000       2.13450000
H       -3.54500000       0.12840000       0.03420000
H       -2.37790000       1.11390000      -0.98170000
H       -1.61290000      -0.87660000      -1.93710000
