20
Properties=species:S:1:pos:R:3 gdb_65506=T pbc="F F F"
C        0.06990000       1.74360000      -0.34380000
C        0.00720000       0.24940000      -0.05170000
C        0.98970000      -0.71200000      -0.79340000
C        1.50790000      -1.09990000       0.58700000
C        1.98530000       0.07750000       1.33260000
N        0.53470000      -0.18130000       1.30650000
C       -1.42730000      -0.22130000      -0.20630000
C       -2.11050000      -1.08890000       0.75970000
O       -2.38720000       0.31540000       0.69790000
H        1.08650000       2.14110000      -0.29800000
H       -0.31720000       1.94690000      -1.34840000
H       -0.55260000       2.28250000       0.37610000
H        0.47330000      -1.52090000      -1.31540000
H        1.71770000      -0.26120000      -1.47470000
H        1.68140000      -2.11560000       0.92790000
H        2.41180000      -0.08650000       2.31760000
H        2.40160000       0.92930000       0.80200000
H       -1.76080000      -0.24440000      -1.24760000
H       -2.91870000      -1.73610000       0.42030000
H       -1.57250000      -1.40790000       1.64730000
