20
Properties=species:S:1:pos:R:3 gdb_78988=T pbc="F F F"
C        0.01920000       1.63370000       0.01530000
C        0.05030000       0.11430000      -0.00890000
C        0.75770000      -0.65150000      -1.15930000
C        2.25150000      -0.29210000      -1.04340000
C        2.62130000      -1.53260000      -0.32580000
N        2.44920000      -0.26660000       0.44970000
C        1.04070000      -0.66520000       0.87790000
C        1.10490000      -1.83650000      -0.15680000
C        0.40010000      -3.15710000      -0.09360000
H        1.02750000       2.04610000      -0.08310000
H       -0.59350000       2.03020000      -0.80200000
H       -0.40260000       2.00450000       0.95600000
H       -0.95350000      -0.30530000       0.13510000
H        0.31830000      -0.80020000      -2.14510000
H        2.85290000       0.38230000      -1.63990000
H        3.52720000      -2.12770000      -0.30040000
H        0.93830000      -0.76890000       1.95840000
H       -0.68050000      -3.02450000       0.03230000
H        0.55820000      -3.73640000      -1.01080000
H        0.76130000      -3.76030000       0.74750000
