19
Properties=species:S:1:pos:R:3 gdb_85835=T pbc="F F F"
C       -0.49980000       1.34100000      -0.07220000
C       -0.02430000      -0.09680000       0.01300000
O        1.14820000      -0.35640000      -0.80760000
C        2.00430000      -0.57870000       0.34370000
C        2.74390000      -1.90680000       0.25120000
C        2.91620000       0.54370000       0.56460000
C        3.62710000       1.48610000       0.80060000
C        0.75240000      -0.51530000       1.29180000
O        0.77560000       0.32120000       2.40500000
H        0.29830000       2.04230000       0.18600000
H       -0.83020000       1.56450000      -1.09090000
H       -1.34030000       1.50310000       0.61000000
H       -0.83400000      -0.78300000      -0.26410000
H        3.43610000      -1.89850000      -0.59520000
H        3.31520000      -2.09100000       1.16590000
H        2.02530000      -2.71800000       0.10680000
H        4.27810000       2.30720000       0.97750000
H        0.47150000      -1.50960000       1.64740000
H        1.33630000       1.08090000       2.19910000
