25
Properties=species:S:1:pos:R:3 gdb_120871=T pbc="F F F"
C        0.05950000       1.58520000      -0.05890000
C       -0.01960000       0.06220000       0.07650000
C       -1.43880000      -0.48910000      -0.10880000
C       -1.51780000      -2.00740000       0.02750000
C       -1.29880000      -2.67330000       1.43290000
C       -2.64500000      -3.40340000       1.28610000
C       -2.89050000      -4.82630000       1.69820000
C       -3.73780000      -2.38110000       1.14750000
C       -2.88600000      -2.70010000      -0.05540000
H        1.08380000       1.94760000       0.07480000
H       -0.28340000       1.91310000      -1.04670000
H       -0.56940000       2.08220000       0.68840000
H        0.64820000      -0.40640000      -0.65890000
H        0.36020000      -0.23740000       1.06210000
H       -2.10970000      -0.01310000       0.61860000
H       -1.81410000      -0.19960000      -1.10070000
H       -0.83020000      -2.46320000      -0.69410000
H       -0.43830000      -3.34710000       1.45190000
H       -1.22260000      -1.99210000       2.28860000
H       -2.90960000      -4.92760000       2.79080000
H       -3.85150000      -5.18950000       1.31850000
H       -2.10750000      -5.49420000       1.32000000
H       -4.74530000      -2.78500000       1.10870000
H       -3.67270000      -1.41720000       1.64760000
H       -3.32760000      -3.09870000      -0.96280000
