18
Properties=species:S:1:pos:R:3 gdb_63012=T pbc="F F F"
C        0.07120000       1.52950000       0.02560000
C        0.00340000       0.00560000       0.00530000
O       -1.34140000      -0.47530000      -0.02100000
C        0.66420000      -0.62540000      -1.23200000
N        2.08820000      -0.31080000      -1.41250000
C        1.69890000      -1.60420000      -0.80940000
C        1.73640000      -1.60550000       0.70730000
O        2.12730000      -0.36100000       1.29750000
C        0.73380000      -0.64840000       1.19640000
H        1.11400000       1.85150000       0.00380000
H       -0.45220000       1.94640000      -0.84020000
H       -0.39490000       1.92860000       0.93510000
H       -1.83600000      -0.00350000       0.65740000
H        0.02360000      -0.77600000      -2.09490000
H        2.33880000      -0.46320000      -2.38690000
H        1.88630000      -2.52790000      -1.34500000
H        2.03300000      -2.50010000       1.24720000
H        0.19660000      -0.74980000       2.13910000
