18
Properties=species:S:1:pos:R:3 gdb_41645=T pbc="F F F"
C       -0.03590000       1.42310000      -0.14740000
C        1.37470000       2.00770000      -0.01250000
C        2.09500000       1.42110000       1.19440000
C        2.12110000      -0.11350000       1.30740000
C        1.85350000       0.10750000       2.83470000
C        0.42490000       0.31200000       2.48930000
C        0.60390000      -0.42820000       1.16030000
O       -0.05240000       0.00680000      -0.00140000
N        1.37370000       1.48200000       2.52620000
H       -0.69620000       1.88180000       0.60280000
H       -0.45640000       1.62920000      -1.13520000
H        1.96510000       1.77880000      -0.90850000
H        1.30920000       3.09870000       0.06910000
H        3.07860000       1.87340000       1.34600000
H        2.87150000      -0.73730000       0.82670000
H        2.34760000      -0.18330000       3.75080000
H       -0.44120000       0.37520000       3.13470000
H        0.39270000      -1.49430000       1.26940000
