23
Properties=species:S:1:pos:R:3 gdb_70247=T pbc="F F F"
C       -0.14770000       1.50090000       0.02330000
C        0.01180000       0.00480000       0.03510000
C       -0.87610000      -0.90030000       0.85010000
C        0.61170000      -0.80890000       1.14950000
C        1.51100000      -1.84660000       0.48850000
C        1.61370000      -1.36360000      -0.98670000
C        2.86070000      -0.49450000      -1.19900000
C        1.55130000      -2.49890000      -2.00360000
O        0.43770000      -0.54480000      -1.19230000
H        0.79620000       1.99620000      -0.22720000
H       -0.89360000       1.80270000      -0.71980000
H       -0.47980000       1.86260000       1.00100000
H       -1.55790000      -0.44450000       1.56120000
H       -1.24660000      -1.80140000       0.37200000
H        0.92550000      -0.34680000       2.07860000
H        2.49660000      -1.88870000       0.96030000
H        1.07980000      -2.85230000       0.54220000
H        3.77570000      -1.09080000      -1.11550000
H        2.83490000      -0.03430000      -2.19080000
H        2.90680000       0.30380000      -0.45140000
H        0.63160000      -3.07630000      -1.87490000
H        1.56740000      -2.10420000      -3.02390000
H        2.40560000      -3.17290000      -1.88350000
