16
Properties=species:S:1:pos:R:3 gdb_124677=T pbc="F F F"
C        0.10540000       1.48340000       0.16770000
C       -0.06420000      -0.02460000       0.00260000
C        0.78440000      -0.83510000       0.98850000
O        1.69270000      -0.37370000       1.62390000
N       -1.44860000      -0.46750000       0.08580000
C       -2.33060000      -0.35630000       1.11100000
C       -3.46720000      -0.97090000       0.64540000
N       -3.23170000      -1.42430000      -0.61650000
N       -2.01210000      -1.12380000      -0.95420000
H        1.16360000       1.73850000       0.08680000
H       -0.45540000       2.01580000      -0.60320000
H       -0.23910000       1.81590000       1.15060000
H        0.25290000      -0.33620000      -1.00130000
H        0.49280000      -1.90560000       1.05860000
H       -2.08750000       0.13360000       2.03880000
H       -4.41880000      -1.11050000       1.13160000
