17
Properties=species:S:1:pos:R:3 gdb_75236=T pbc="F F F"
C        0.04240000       1.49670000       0.06280000
C        0.01470000       0.00630000      -0.02150000
C       -0.03900000      -0.78530000      -1.10550000
C       -0.03960000      -2.26310000      -0.79590000
C       -0.02180000      -2.28570000       0.72470000
C       -0.61570000      -3.31810000       1.58850000
O        0.79370000      -3.23220000       1.41660000
C        0.05000000      -0.84090000       1.19620000
O        0.11030000      -0.47450000       2.34770000
H        0.94540000       1.83420000       0.58290000
H        0.01250000       1.96060000      -0.92620000
H       -0.80560000       1.86490000       0.65050000
H       -0.08230000      -0.42190000      -2.12760000
H       -0.91400000      -2.76760000      -1.22420000
H        0.84650000      -2.76620000      -1.20150000
H       -0.98120000      -3.02460000       2.57110000
H       -1.09720000      -4.18010000       1.12800000
