21
Properties=species:S:1:pos:R:3 gdb_100465=T pbc="F F F"
C       -0.38770000       1.44170000       0.06550000
C       -0.23850000      -0.07820000       0.14590000
C        0.90500000      -0.50850000       1.08700000
O        0.73030000       0.00490000       2.40790000
C        1.07380000      -1.96460000       1.08760000
C        1.18240000      -3.16560000       1.09230000
C        1.28930000      -4.62850000       1.11300000
C        1.30580000      -5.17080000       2.54960000
O        0.27020000      -5.24770000       0.33020000
H        0.51220000       1.90400000      -0.35520000
H       -1.23380000       1.71900000      -0.56990000
H       -0.54630000       1.86640000       1.05980000
H       -1.16920000      -0.53690000       0.50470000
H       -0.04660000      -0.50320000      -0.84590000
H        1.83510000      -0.04230000       0.73650000
H        0.02810000      -0.50820000       2.82310000
H        2.22400000      -4.91960000       0.61830000
H        1.38400000      -6.26070000       2.52480000
H        2.15060000      -4.76210000       3.11150000
H        0.38420000      -4.89590000       3.07310000
H       -0.57630000      -4.90430000       0.63720000
