13
Properties=species:S:1:pos:R:3 gdb_1111=T pbc="F F F"
C       -0.32960000       1.32350000       0.20700000
C        0.28490000      -0.01080000      -0.12280000
N        1.47260000      -0.39490000       0.11530000
O       -0.64570000      -0.78360000      -0.73740000
C       -0.50620000      -2.10690000      -1.21800000
N        0.70460000      -2.66240000      -1.04170000
O       -1.47280000      -2.59780000      -1.73070000
H        0.38990000       1.97670000       0.70290000
H       -0.68620000       1.80390000      -0.70870000
H       -1.19890000       1.18110000       0.85550000
H        2.00590000       0.33310000       0.58130000
H        1.44260000      -2.13170000      -0.58700000
H        0.82190000      -3.60260000      -1.37650000
