20
Properties=species:S:1:pos:R:3 gdb_117487=T pbc="F F F"
C       -0.14270000       1.53610000       0.06910000
C       -0.08100000       0.01270000       0.03810000
N       -1.42510000      -0.55510000       0.04770000
C       -1.57590000      -1.93910000       0.02340000
N       -0.56940000      -2.68940000      -0.17360000
C       -0.67480000      -4.12610000      -0.33470000
C       -3.02620000      -2.39340000       0.18880000
N       -3.94530000      -1.51130000      -0.31480000
O       -3.33620000      -3.43050000       0.73930000
H        0.86580000       1.95770000       0.04470000
H       -0.69870000       1.92680000      -0.78900000
H       -0.62880000       1.89880000       0.98270000
H        0.42080000      -0.34060000      -0.86680000
H        0.51220000      -0.37190000       0.88030000
H       -2.07190000      -0.08130000       0.66420000
H       -0.31420000      -4.61740000       0.57750000
H       -1.68220000      -4.50290000      -0.53470000
H       -0.00330000      -4.43310000      -1.14480000
H       -3.64810000      -0.78400000      -0.94430000
H       -4.90620000      -1.81580000      -0.34340000
