20
Properties=species:S:1:pos:R:3 gdb_110644=T pbc="F F F"
C        0.09460000       1.25350000      -0.37450000
O       -0.03060000       0.17260000       0.53130000
C       -1.18980000      -0.57240000       0.30920000
C       -1.44220000      -1.60200000      -0.76230000
C       -0.33750000      -2.65560000      -0.91100000
C        0.85400000      -2.48440000      -0.05160000
N       -0.38810000      -3.04200000       0.53860000
C       -1.45150000      -1.97540000       0.74320000
C       -2.54780000      -2.37410000       1.68330000
H        1.00910000       1.78950000      -0.11150000
H        0.16310000       0.90380000      -1.41390000
H       -0.75920000       1.94340000      -0.29480000
H       -2.09170000       0.03230000       0.45530000
H       -2.26960000      -1.52410000      -1.45740000
H       -0.39780000      -3.42240000      -1.67720000
H        1.61580000      -3.25570000      -0.13820000
H        1.20330000      -1.50740000       0.24470000
H       -2.16590000      -2.42310000       2.71010000
H       -3.37320000      -1.65660000       1.65860000
H       -2.93480000      -3.36490000       1.42630000
