16
Properties=species:S:1:pos:R:3 gdb_7310=T pbc="F F F"
C       -0.83220000       1.68780000      -0.98530000
C       -0.26810000       0.54110000      -0.15420000
O       -1.33050000      -0.36750000       0.16100000
C       -1.37030000      -0.88970000       1.40660000
N       -2.12580000      -1.86940000       1.64900000
C        0.87170000      -0.16520000      -0.91140000
N        0.62180000      -1.45110000      -1.25960000
O        1.90030000       0.43290000      -1.16110000
H       -0.01470000       2.34470000      -1.28820000
H       -1.32500000       1.30000000      -1.88130000
H       -1.56240000       2.25700000      -0.40500000
H        0.17260000       0.93300000       0.77110000
H       -0.71590000      -0.36900000       2.11870000
H       -2.06930000      -2.11960000       2.63400000
H       -0.27620000      -1.86900000      -1.08300000
H        1.31100000      -1.94470000      -1.80230000
