15
Properties=species:S:1:pos:R:3 gdb_131877=T pbc="F F F"
O       -0.08130000       1.43720000      -0.01090000
C       -0.03470000       0.02580000      -0.00360000
C       -1.41960000      -0.59250000       0.04630000
O       -2.08150000      -0.17410000      -1.16610000
C       -3.34790000      -0.54270000      -1.30700000
N       -4.06820000      -0.16540000      -2.35890000
N       -5.22230000      -0.76380000      -2.07110000
N       -5.23830000      -1.45230000      -0.94840000
N       -4.03540000      -1.32390000      -0.43690000
H       -0.61770000       1.69350000      -0.76940000
H        0.50680000      -0.36940000      -0.87730000
H        0.51620000      -0.27220000       0.89430000
H       -1.37730000      -1.68630000       0.08610000
H       -1.98490000      -0.22740000       0.90940000
H       -6.03090000      -0.69490000      -2.67060000
