26
Properties=species:S:1:pos:R:3 gdb_102650=T pbc="F F F"
C        0.04980000       1.50100000       0.09010000
C       -0.00180000      -0.02120000      -0.07380000
C       -1.41160000      -0.63220000       0.05340000
C       -2.28420000      -0.33740000      -1.18310000
C       -3.78950000      -0.54460000      -0.97860000
C       -1.31700000      -2.14510000       0.31020000
N       -0.66790000      -2.43710000       1.58600000
C       -1.54550000      -2.55840000       2.74520000
C       -0.90460000      -3.76120000       2.14500000
H        1.07690000       1.86910000       0.00030000
H       -0.54920000       2.02350000      -0.66320000
H       -0.32390000       1.80230000       1.07530000
H        0.41880000      -0.30260000      -1.04990000
H        0.63770000      -0.48540000       0.68340000
H       -1.89860000      -0.17990000       0.93100000
H       -2.11870000       0.69970000      -1.49510000
H       -1.93530000      -0.95920000      -2.01970000
H       -4.34610000      -0.29130000      -1.88660000
H       -4.03670000      -1.58010000      -0.72430000
H       -4.16680000       0.09250000      -0.17060000
H       -2.31940000      -2.60560000       0.25990000
H       -0.71420000      -2.60870000      -0.48260000
H       -1.17150000      -2.13600000       3.67350000
H       -2.61680000      -2.43780000       2.58830000
H       -1.55050000      -4.44110000       1.59080000
H       -0.05270000      -4.23430000       2.62550000
