14
Properties=species:S:1:pos:R:3 gdb_42199=T pbc="F F F"
O        0.28850000       0.47380000       1.23980000
C       -0.01480000       1.31240000       0.42190000
C        0.93610000       1.71600000      -0.63430000
N        1.70990000       1.99980000      -1.44470000
C       -1.32420000       1.97710000       0.37150000
C       -2.31730000       1.99520000       1.50130000
C       -2.71570000       1.33570000       0.21660000
C       -2.89780000       2.38290000      -0.87960000
O       -1.60120000       2.98290000      -0.59150000
H       -2.08730000       1.31570000       2.31420000
H       -2.72840000       2.96110000       1.78000000
H       -2.95080000       0.28310000       0.14140000
H       -2.90600000       1.96490000      -1.89040000
H       -3.71780000       3.09810000      -0.75800000
