16
Properties=species:S:1:pos:R:3 gdb_68938=T pbc="F F F"
C        0.19620000       1.44590000       0.20340000
C        0.04200000      -0.03550000       0.06130000
C        1.07720000      -0.97890000      -0.41430000
C        0.55350000      -1.14260000       1.03180000
C        1.43260000      -0.95630000       2.19470000
O        2.47410000      -0.33890000       2.15550000
C       -0.85090000      -1.71780000       0.94000000
O       -1.42090000      -2.67150000       1.38670000
N       -1.28330000      -0.67160000       0.10390000
H        1.21920000       1.68710000       0.50410000
H       -0.00810000       1.95140000      -0.74710000
H       -0.49640000       1.83510000       0.95440000
H        0.83420000      -1.75580000      -1.13270000
H        2.09850000      -0.61000000      -0.44130000
H        1.06360000      -1.41090000       3.13700000
H       -1.87440000      -0.80940000      -0.70860000
