18
Properties=species:S:1:pos:R:3 gdb_55003=T pbc="F F F"
C       -0.93090000       1.54530000      -0.98920000
C       -0.39900000       0.63280000       0.09830000
O        0.55250000       0.92660000       0.78340000
C       -1.16190000      -0.65940000       0.26550000
N       -0.57050000      -1.72960000       1.06560000
C       -1.77060000      -1.09200000       1.58440000
C       -1.70280000      -0.26980000       2.85710000
C       -0.39660000      -0.22280000       3.60740000
O       -2.71530000       0.27840000       3.23240000
H       -0.36790000       2.47860000      -0.99710000
H       -0.84860000       1.05710000      -1.96750000
H       -1.99480000       1.75220000      -0.82500000
H       -1.75830000      -0.93590000      -0.60260000
H       -0.77610000      -2.63780000       0.65880000
H       -2.73450000      -1.58810000       1.48000000
H        0.39470000       0.15600000       2.95550000
H       -0.51040000       0.40000000       4.49540000
H       -0.10340000      -1.23930000       3.89340000
