17
Properties=species:S:1:pos:R:3 gdb_65245=T pbc="F F F"
O       -0.02280000       1.38600000       0.46260000
C        0.06600000       0.03050000       0.10070000
C        1.15000000      -0.43280000      -0.83730000
C        1.17250000      -0.83510000       0.63170000
C       -1.33590000      -0.51260000       0.00310000
C       -2.19940000      -0.10760000      -1.20670000
O       -2.30340000      -1.51720000      -1.60900000
C       -1.51080000      -1.92270000      -0.57110000
O       -1.14030000      -3.02580000      -0.32100000
H        0.86560000       1.74980000       0.53080000
H        0.93570000      -1.19990000      -1.57360000
H        1.86600000       0.31190000      -1.17100000
H        1.90800000      -0.36370000       1.27630000
H        0.94830000      -1.86800000       0.87340000
H       -1.84490000      -0.39030000       0.96350000
H       -3.18600000       0.30490000      -0.99240000
H       -1.68880000       0.47420000      -1.97550000
