17
Properties=species:S:1:pos:R:3 gdb_79412=T pbc="F F F"
C       -0.18170000       1.64550000       0.19400000
C       -0.00440000       0.14710000      -0.01990000
C        0.45390000      -0.59310000      -1.33910000
C        1.61830000      -0.44150000      -2.37400000
C        2.43580000       0.37640000      -1.38610000
C        1.79350000      -0.86540000      -0.66210000
O        2.26200000      -1.70290000      -1.79640000
C        1.18720000      -0.61770000       0.73770000
O        1.38340000      -0.91430000       1.87010000
H        0.70440000       2.23360000      -0.05140000
H       -1.01190000       2.01920000      -0.41330000
H       -0.42110000       1.83650000       1.24510000
H       -0.92910000      -0.34640000       0.30010000
H       -0.14070000      -1.48960000      -1.51680000
H        1.58380000      -0.42120000      -3.46530000
H        3.51680000       0.29770000      -1.49390000
H        2.10220000       1.37980000      -1.13270000
