16
Properties=species:S:1:pos:R:3 gdb_25745=T pbc="F F F"
C        0.00230000       1.54190000      -0.07540000
C        0.00310000       0.03350000       0.05040000
O        0.00500000      -0.52800000       1.13090000
C        0.00180000      -0.73380000      -1.21190000
C        0.00260000      -2.09290000      -1.37590000
C        0.00560000      -3.25300000      -0.45540000
O        0.00040000      -2.33580000      -2.71760000
C       -0.00150000      -1.10600000      -3.29970000
N       -0.00080000      -0.12340000      -2.47030000
H        0.87990000       1.87650000      -0.63770000
H       -0.87080000       1.87600000      -0.64460000
H       -0.00120000       1.98480000       0.92080000
H       -0.87340000      -3.88580000      -0.62080000
H        0.89320000      -3.87580000      -0.61370000
H        0.00010000      -2.88290000       0.56930000
H       -0.00340000      -1.08300000      -4.37800000
