16
Properties=species:S:1:pos:R:3 gdb_108891=T pbc="F F F"
N        0.22220000       3.04090000       0.36290000
H        0.66610000       3.20990000      -0.53560000
H        0.21510000       3.93510000       0.84590000
H       -0.74940000       2.81380000       0.16490000
C       -0.72250000       0.02380000       1.64080000
C       -1.97570000       0.10090000       1.19090000
N       -2.95920000      -0.87040000       1.38060000
C       -4.02570000      -0.44080000       0.80620000
C       -3.82910000       0.91420000       0.15770000
O       -2.46780000       1.17470000       0.46540000
C       -5.25870000      -1.15220000       0.77760000
N       -6.28920000      -1.67590000       0.71640000
H       -0.43120000      -0.85470000       2.19800000
H       -0.01550000       0.82290000       1.45130000
H       -3.98610000       0.89100000      -0.92880000
H       -4.48080000       1.68750000       0.58570000
