22
Properties=species:S:1:pos:R:3 gdb_64087=T pbc="F F F"
C       -0.18820000       1.57660000       0.03430000
C       -0.04050000       0.04410000      -0.00530000
C       -1.43420000      -0.60060000       0.02080000
C        0.72360000      -0.41590000      -1.26430000
C        2.15820000       0.12280000      -1.31240000
C        2.92720000       0.02450000       0.00060000
O        4.14050000       0.11380000       0.05040000
N        2.16870000      -0.09810000       1.13450000
C        0.75670000      -0.45080000       1.21590000
H        0.77510000       2.08210000       0.13950000
H       -0.66660000       1.94480000      -0.87960000
H       -0.81270000       1.88030000       0.88140000
H       -2.03740000      -0.25130000      -0.82370000
H       -1.37110000      -1.69230000      -0.04190000
H       -1.97270000      -0.34600000       0.94050000
H        0.74650000      -1.51360000      -1.27270000
H        0.17890000      -0.11240000      -2.16590000
H        2.75550000      -0.38880000      -2.07120000
H        2.16470000       1.18360000      -1.59070000
H        2.72310000      -0.18050000       1.97520000
H        0.34530000      -0.01260000       2.13290000
H        0.63650000      -1.54210000       1.30230000
