22
Properties=species:S:1:pos:R:3 gdb_121537=T pbc="F F F"
C        0.00820000       1.55820000      -0.13180000
C       -0.01140000       0.03780000       0.04700000
C       -1.42490000      -0.55010000       0.00500000
C       -1.43630000      -2.08140000       0.19040000
C       -2.77560000      -2.65780000       0.15430000
C       -3.89580000      -3.10350000       0.11730000
C       -5.21960000      -3.66010000       0.10040000
C       -5.85530000      -4.04270000      -1.19660000
N       -5.42450000      -5.08640000      -0.26130000
H        1.02910000       1.95090000      -0.09740000
H       -0.42890000       1.84930000      -1.09330000
H       -0.56740000       2.05630000       0.65620000
H        0.60040000      -0.43220000      -0.73460000
H        0.46280000      -0.22570000       1.00190000
H       -2.04310000      -0.09230000       0.78660000
H       -1.90470000      -0.30320000      -0.94970000
H       -0.81910000      -2.54500000      -0.59130000
H       -0.95180000      -2.33450000       1.14340000
H       -5.87320000      -3.33330000       0.90550000
H       -6.93130000      -3.94320000      -1.30920000
H       -5.27920000      -3.87330000      -2.10130000
H       -4.53430000      -5.47160000      -0.56820000
