17
Properties=species:S:1:pos:R:3 gdb_46262=T pbc="F F F"
O       -0.05270000       0.02020000      -0.29140000
C       -0.04990000       1.19350000      -0.07700000
C       -1.12010000       2.23980000       0.28630000
N       -0.00930000       3.18510000       0.58450000
C        1.01940000       2.29410000      -0.00830000
C        2.41240000       2.19920000       0.69650000
C        3.06920000       2.67880000      -0.60520000
N        2.71060000       1.67380000      -1.63010000
C        1.74990000       2.75040000      -1.29060000
H       -1.75640000       2.49960000      -0.57090000
H       -1.75990000       2.00620000       1.14350000
H       -0.09140000       4.08540000       0.12480000
H        2.45550000       2.92720000       1.50910000
H        2.72130000       1.21160000       1.04570000
H        3.94750000       3.30160000      -0.71920000
H        3.16260000       1.94770000      -2.50290000
H        1.36770000       3.42780000      -2.04660000
