21
Properties=species:S:1:pos:R:3 gdb_122945=T pbc="F F F"
O       -0.08250000       1.49350000      -0.01960000
C        0.02500000       0.07840000       0.02210000
C       -1.38310000      -0.50070000      -0.01790000
C       -1.39710000      -2.03090000       0.01790000
C       -2.81380000      -2.61260000      -0.01630000
C       -2.81400000      -4.14950000       0.07770000
O       -2.21670000      -4.59520000       1.26530000
C       -4.22540000      -4.68590000      -0.03320000
O       -4.71300000      -5.38240000       0.82450000
H        0.80400000       1.86370000       0.02030000
H        0.60830000      -0.30250000      -0.83270000
H        0.53760000      -0.25670000       0.93880000
H       -1.94710000      -0.09760000       0.83220000
H       -1.88230000      -0.13490000      -0.92410000
H       -0.82550000      -2.42750000      -0.83290000
H       -0.89580000      -2.39200000       0.92280000
H       -3.39970000      -2.21490000       0.82190000
H       -3.32330000      -2.30910000      -0.94090000
H       -2.26290000      -4.54400000      -0.79770000
H       -2.88820000      -5.13960000       1.70610000
H       -4.79100000      -4.39970000      -0.94380000
