14
Properties=species:S:1:pos:R:3 gdb_3384=T pbc="F F F"
O        0.10840000       0.06570000       0.36760000
C        0.07680000       1.21970000       0.01190000
N        1.12150000       1.89840000      -0.58720000
C        2.49980000       1.79180000      -0.14630000
C        3.37810000       2.36380000      -1.26870000
C        2.59150000       3.72070000      -1.15420000
C        1.74720000       3.09640000      -0.03540000
H       -0.83790000       1.84220000       0.05560000
H        2.75440000       1.06920000       0.61840000
H        4.42370000       2.46800000      -0.97300000
H        3.31920000       1.83510000      -2.22220000
H        3.22440000       4.53640000      -0.79910000
H        2.03390000       4.04750000      -2.03440000
H        1.32360000       3.57320000       0.84110000
