19
Properties=species:S:1:pos:R:3 gdb_80100=T pbc="F F F"
C       -0.10640000       1.53580000      -0.00100000
C        0.05790000       0.03500000       0.03890000
C        1.35570000      -0.69940000      -0.24250000
C        2.62780000       0.06340000      -0.11710000
C        2.82520000       0.51670000       1.12320000
C        1.72730000       0.08740000       2.06980000
C        0.75120000      -0.70430000       1.17860000
C        0.12220000      -1.86620000       1.72840000
C       -0.40220000      -2.83650000       2.21120000
H        0.81150000       2.05790000       0.27640000
H       -0.38260000       1.86120000      -1.01000000
H       -0.90220000       1.85610000       0.68020000
H       -0.81380000      -0.50690000      -0.31890000
H        1.31400000      -1.58580000      -0.86590000
H        3.28650000       0.23670000      -0.96060000
H        3.65460000       1.13810000       1.44170000
H        2.11040000      -0.54940000       2.87590000
H        1.23980000       0.94230000       2.55640000
H       -0.86540000      -3.69390000       2.63180000
