19
Properties=species:S:1:pos:R:3 gdb_38998=T pbc="F F F"
C       -0.06060000       1.46050000       0.11500000
C        1.29570000       0.80420000       0.02470000
C        1.96410000       0.44670000       1.36280000
C        1.00810000      -0.54050000       2.01670000
C       -0.00320000      -0.83560000       1.18970000
C       -1.04260000      -1.83930000       1.02200000
C       -1.43950000      -1.86220000      -0.26390000
C       -0.70780000      -0.84610000      -1.13050000
C        0.03450000      -0.03460000      -0.07340000
H       -0.40000000       1.84680000       1.07250000
H       -0.37620000       2.03990000      -0.74830000
H        1.92010000       1.02910000      -0.83260000
H        2.94620000      -0.02190000       1.20610000
H        2.14960000       1.34050000       1.97390000
H        1.19470000      -0.97640000       2.99080000
H       -1.38990000      -2.51060000       1.79780000
H       -2.16120000      -2.55800000      -0.67760000
H       -0.03690000      -1.36080000      -1.83400000
H       -1.39160000      -0.24040000      -1.73590000
