20
Properties=species:S:1:pos:R:3 gdb_85234=T pbc="F F F"
C       -0.17850000       1.60350000       0.04550000
C        0.05560000       0.09310000       0.00870000
N        0.89270000      -0.32720000      -1.11040000
C        1.82310000      -1.29580000      -0.81830000
O        2.46140000      -1.93880000      -1.62420000
C        1.89280000      -1.40660000       0.68900000
C        2.28420000      -2.74000000       1.27010000
C        2.26480000      -0.09390000       1.35360000
C        0.81720000      -0.47560000       1.20810000
H        0.76680000       2.14600000       0.13290000
H       -0.68700000       1.94430000      -0.86270000
H       -0.81080000       1.86660000       0.89930000
H       -0.92430000      -0.40650000      -0.04750000
H        0.65320000      -0.13700000      -2.07070000
H        3.25710000      -3.04800000       0.87580000
H        2.35100000      -2.69110000       2.36090000
H        1.56090000      -3.51870000       1.00660000
H        2.69190000      -0.16550000       2.34850000
H        2.67410000       0.70550000       0.74480000
H        0.24620000      -0.71540000       2.09730000
