18
Properties=species:S:1:pos:R:3 gdb_80496=T pbc="F F F"
C        0.15380000       1.63230000      -0.40720000
C        0.24580000       0.13140000      -0.24290000
C        1.50530000      -0.64890000      -0.37080000
O        2.62500000       0.05900000       0.14280000
C        2.10990000      -0.04080000       1.50460000
C        2.17730000       1.23090000       2.32090000
C        0.78210000      -0.62250000       0.98560000
C        0.02570000      -1.62240000       1.65590000
N       -0.58800000      -2.42820000       2.21790000
H        1.13110000       2.10060000      -0.28320000
H       -0.20350000       1.86650000      -1.41520000
H       -0.54710000       2.07590000       0.30620000
H       -0.60310000      -0.42010000      -0.64320000
H        1.68930000      -1.47070000      -1.05370000
H        2.66200000      -0.84030000       2.01400000
H        1.58950000       2.04080000       1.88850000
H        1.80590000       1.03180000       3.33150000
H        3.21820000       1.55950000       2.40350000
