19
Properties=species:S:1:pos:R:3 gdb_35788=T pbc="F F F"
N        0.11290000      -1.16410000       0.03890000
C        0.05610000      -0.01040000       0.01940000
C       -0.02690000       1.45480000       0.03550000
C       -0.83530000       1.95200000       1.25580000
C       -1.01240000       3.47360000       1.14660000
C        0.26710000       4.20170000       0.76850000
C        1.55540000       4.02770000       1.52880000
C        1.41630000       3.44320000       0.13740000
N        1.32530000       2.01100000      -0.04040000
H       -0.56830000       1.75630000      -0.87330000
H       -1.81230000       1.45990000       1.29260000
H       -0.29920000       1.67200000       2.16980000
H       -1.76310000       3.67580000       0.37140000
H       -1.41910000       3.87420000       2.08210000
H        0.09990000       5.19740000       0.36850000
H        2.19220000       4.89480000       1.66600000
H        1.57600000       3.32420000       2.35520000
H        1.95830000       3.94740000      -0.65930000
H        1.94120000       1.51810000       0.59500000
