21
Properties=species:S:1:pos:R:3 gdb_99908=T pbc="F F F"
C       -0.14170000       1.44520000      -0.00480000
O       -0.05260000       0.03490000      -0.04210000
C        0.70300000      -0.54140000      -1.11460000
C        0.07450000      -0.21590000      -2.48560000
C        2.09630000      -0.05920000      -1.08460000
C        3.22610000       0.35270000      -1.06920000
C        0.61930000      -2.04410000      -0.86050000
C        1.65190000      -3.00810000      -1.38160000
C        1.53490000      -2.74760000       0.10050000
H        0.84920000       1.91810000      -0.00830000
H       -0.73020000       1.85330000      -0.83820000
H       -0.64920000       1.69400000       0.93040000
H        0.14260000       0.84860000      -2.72040000
H        0.59250000      -0.77030000      -3.27170000
H       -0.97880000      -0.51170000      -2.47780000
H        4.22510000       0.71390000      -1.05080000
H       -0.41340000      -2.37950000      -0.87670000
H        1.30650000      -3.95690000      -1.77660000
H        2.51720000      -2.59660000      -1.88940000
H        2.31980000      -2.16160000       0.56450000
H        1.10950000      -3.51720000       0.73440000
