16
Properties=species:S:1:pos:R:3 gdb_110813=T pbc="F F F"
C        0.24830000       0.98750000       0.30860000
O       -0.42900000       0.03090000      -0.49310000
C        0.39180000      -0.61390000      -1.39440000
C        1.42830000      -1.61370000      -0.97700000
O        1.04700000      -2.26490000       0.23880000
C       -0.11760000      -2.83070000      -0.41110000
C       -1.37510000      -2.62050000       0.31150000
N       -2.37850000      -2.53820000       0.87790000
C        0.16060000      -2.06410000      -1.70810000
H        1.03900000       0.51490000       0.90410000
H        0.68780000       1.78670000      -0.30550000
H       -0.49860000       1.42020000       0.97640000
H        0.68510000      -0.02940000      -2.27080000
H        2.47890000      -1.62110000      -1.24190000
H        0.02820000      -3.90890000      -0.54330000
H       -0.01330000      -2.45600000      -2.70020000
