20
Properties=species:S:1:pos:R:3 gdb_78307=T pbc="F F F"
C        0.11320000       1.54800000      -0.07160000
C       -0.04250000       0.04600000      -0.06860000
C        0.59790000      -0.77210000      -1.13090000
N        1.19620000      -0.70010000       0.23320000
C        1.03770000      -2.14100000       0.62480000
C       -0.34020000      -2.64460000       0.10500000
C        0.30910000      -2.27360000      -1.25800000
O       -0.19430000      -2.63860000      -2.49990000
C        1.65190000      -2.82320000      -0.63140000
H        1.07440000       1.83780000      -0.50430000
H       -0.68720000       2.01800000      -0.65300000
H        0.07020000       1.94300000       0.94880000
H       -0.97500000      -0.29940000       0.36540000
H        1.13430000      -0.29950000      -1.95060000
H        1.38600000      -2.34770000       1.63460000
H       -0.42520000      -3.72720000       0.22470000
H       -1.27120000      -2.17410000       0.42050000
H       -0.28330000      -3.59650000      -2.52340000
H        2.59380000      -2.41360000      -1.00190000
H        1.68740000      -3.91420000      -0.56850000
