19
Properties=species:S:1:pos:R:3 gdb_81666=T pbc="F F F"
C       -0.22720000       1.41540000       0.09200000
C        0.05460000      -0.08010000       0.00680000
C        0.89020000      -0.55480000      -1.22740000
C        2.17220000      -0.30820000      -0.37920000
C        1.26400000      -0.58620000       0.83810000
O        1.15130000      -2.00650000       1.05750000
C        0.87310000      -2.78920000      -0.02100000
O        0.77380000      -3.97650000       0.11210000
C        0.70440000      -2.06640000      -1.36350000
H        0.66850000       2.02160000      -0.07540000
H       -0.96730000       1.70830000      -0.65990000
H       -0.62890000       1.68080000       1.07560000
H       -0.86870000      -0.64130000       0.18880000
H        0.77010000      -0.02880000      -2.17740000
H        3.02590000      -0.97570000      -0.52110000
H        2.51090000       0.72810000      -0.40960000
H        1.48540000      -0.15350000       1.81430000
H       -0.29090000      -2.32400000      -1.74250000
H        1.42680000      -2.50920000      -2.05800000
