17
Properties=species:S:1:pos:R:3 gdb_74919=T pbc="F F F"
C       -0.01100000       1.49300000       0.05090000
C       -0.00230000      -0.00510000      -0.02400000
C       -0.03730000      -0.73000000      -1.15310000
C       -0.01810000      -2.21190000      -0.93460000
O       -1.11980000      -2.57400000      -0.08180000
C       -0.68630000      -2.16920000       1.18320000
C        0.79940000      -2.15790000       1.12990000
O        1.14730000      -2.55670000      -0.16320000
C        0.04830000      -0.80650000       1.21330000
H        0.88520000       1.86890000       0.55940000
H       -0.05010000       1.93940000      -0.94620000
H       -0.87440000       1.85550000       0.62230000
H       -0.07630000      -0.30730000      -2.14950000
H       -0.04560000      -2.82910000      -1.83110000
H       -1.31720000      -2.50490000       1.99360000
H        1.49190000      -2.48340000       1.89280000
H        0.07880000      -0.29960000       2.17160000
