14
Properties=species:S:1:pos:R:3 gdb_133012=T pbc="F F F"
C       -0.01310000       1.44620000      -0.13530000
N        0.00450000      -0.00520000      -0.16870000
C       -1.03520000      -0.65000000       0.13290000
O       -2.22580000       0.01690000       0.50560000
C       -3.29920000      -0.71020000       0.81570000
F       -4.31100000       0.06100000       1.13630000
C       -3.33180000      -2.05140000       0.79960000
N       -2.19700000      -2.76570000       0.44290000
C       -1.13620000      -2.10670000       0.13520000
H        0.96960000       1.82250000      -0.42520000
H       -0.76320000       1.85950000      -0.82260000
H       -0.25230000       1.82680000       0.86660000
H       -4.22750000      -2.59650000       1.05960000
H       -0.23340000      -2.63980000      -0.14790000
