22
Properties=species:S:1:pos:R:3 gdb_116338=T pbc="F F F"
O        0.23710000       1.39930000       0.13180000
C        0.06140000      -0.00720000       0.02670000
C       -1.40360000      -0.45750000       0.04720000
C       -2.14130000      -0.05410000       1.33390000
C       -3.60800000      -0.48550000       1.24830000
C       -4.32390000       0.22380000       0.08700000
C       -3.49820000       0.24700000      -1.20280000
C       -2.48880000       1.32570000      -1.40380000
N       -2.06130000      -0.06050000      -1.20660000
H        0.00760000       1.78180000      -0.71970000
H        0.54130000      -0.39820000      -0.88140000
H        0.57570000      -0.44050000       0.89180000
H       -1.38110000      -1.55800000       0.01850000
H       -1.64720000      -0.53670000       2.18510000
H       -2.05930000       1.02620000       1.49940000
H       -3.64870000      -1.57280000       1.09810000
H       -4.13390000      -0.27920000       2.18630000
H       -5.28280000      -0.26440000      -0.11220000
H       -4.56040000       1.25200000       0.38630000
H       -4.00900000      -0.13570000      -2.08400000
H       -2.29570000       1.73510000      -2.39340000
H       -2.37720000       2.03810000      -0.58940000
