21
Properties=species:S:1:pos:R:3 gdb_77670=T pbc="F F F"
C       -0.05170000       1.59130000      -0.06950000
C        0.07430000       0.08930000      -0.01590000
C        0.48290000      -0.64770000      -1.28270000
O        0.91720000      -1.94080000      -0.87450000
C        1.48000000      -1.82610000       0.42770000
C        0.73630000      -0.69250000       1.11720000
C        1.34470000      -0.06850000       2.34710000
C       -0.76950000      -0.74040000       0.91700000
O       -1.59420000      -0.02120000       1.79070000
H        0.90370000       2.05920000      -0.33290000
H       -0.78720000       1.89220000      -0.82470000
H       -0.38580000       1.99530000       0.88730000
H       -0.33440000      -0.79050000      -1.99890000
H        1.29230000      -0.09400000      -1.78870000
H        1.36510000      -2.80050000       0.91740000
H        2.55770000      -1.59180000       0.38080000
H        2.31460000       0.39060000       2.12490000
H        0.69110000       0.70150000       2.76300000
H        1.51130000      -0.82000000       3.12910000
H       -1.20570000      -1.66210000       0.52770000
H       -1.67920000      -0.52800000       2.60500000
