20
Properties=species:S:1:pos:R:3 gdb_12850=T pbc="F F F"
C       -0.21060000       1.57460000       0.20680000
C        0.10350000       0.10270000       0.04270000
C       -1.09740000      -0.89320000       0.14740000
C       -0.38780000      -1.63210000       1.31680000
C        0.83210000      -0.67260000       1.19820000
C        2.08960000      -1.23560000       0.52630000
C        1.71230000      -1.21150000      -0.96430000
O        0.89650000      -0.05960000      -1.12860000
H        0.71210000       2.15810000       0.28430000
H       -0.77550000       1.94290000      -0.65600000
H       -0.81000000       1.74650000       1.10600000
H       -2.04980000      -0.42380000       0.40690000
H       -1.24150000      -1.48400000      -0.76040000
H       -0.91090000      -1.56390000       2.27330000
H       -0.16000000      -2.68620000       1.13270000
H        1.05680000      -0.09870000       2.09930000
H        2.94200000      -0.57230000       0.70470000
H        2.35890000      -2.23600000       0.87810000
H        2.56850000      -1.11540000      -1.63750000
H        1.16370000      -2.12560000      -1.24380000
