20
Properties=species:S:1:pos:R:3 gdb_51470=T pbc="F F F"
O        1.49070000      -0.55810000      -0.31010000
C        0.89760000       0.48290000      -0.42860000
C        1.41640000       1.82940000       0.03870000
C        1.40550000       2.84320000      -1.09450000
C        2.37620000       3.96250000      -1.24550000
C        3.67890000       3.96310000      -0.45650000
C        4.38710000       2.63410000      -0.82660000
C        3.60240000       2.08160000      -2.04830000
N        2.35630000       2.85590000      -2.22230000
H       -0.10500000       0.51960000      -0.91480000
H        0.72910000       2.19330000       0.81670000
H        2.39370000       1.68280000       0.49700000
H        0.39200000       3.04420000      -1.44340000
H        2.00830000       4.92330000      -1.59860000
H        4.27580000       4.82670000      -0.76480000
H        3.51810000       4.06000000       0.62220000
H        5.43980000       2.79700000      -1.07200000
H        4.37110000       1.92830000       0.00740000
H        4.17870000       2.21010000      -2.96970000
H        3.37950000       1.01490000      -1.95160000
