18
Properties=species:S:1:pos:R:3 gdb_77019=T pbc="F F F"
C       -0.05580000       1.58930000       0.18560000
C        0.00530000       0.08830000       0.00970000
C        0.54180000      -0.58000000      -1.22350000
C        1.07530000       0.19770000      -2.41980000
C        1.86290000      -0.64430000      -3.31480000
C        2.49800000      -1.35740000      -4.04360000
C        1.33160000      -0.67450000       0.08080000
C        2.55680000       0.05750000       0.22830000
N        3.53730000       0.66110000       0.34780000
H        0.82860000       2.09220000      -0.21150000
H       -0.93710000       1.99960000      -0.31840000
H       -0.12690000       1.84650000       1.24690000
H       -0.81310000      -0.44210000       0.48920000
H        0.05880000      -1.51080000      -1.50440000
H        0.22890000       0.62620000      -2.97230000
H        1.68690000       1.04350000      -2.08790000
H        3.07270000      -1.97440000      -4.68900000
H        1.33200000      -1.63200000       0.59010000
