18
Properties=species:S:1:pos:R:3 gdb_48585=T pbc="F F F"
O       -0.12700000      -0.03040000       0.16840000
C        0.03000000       1.12660000      -0.13450000
C        1.34700000       1.83480000      -0.06880000
C        1.78090000       2.62750000       1.22320000
C        3.17340000       2.52420000       0.50180000
C        2.70810000       1.10730000       0.07120000
C        2.85830000       3.40150000      -0.71850000
C        2.59050000       2.78390000      -2.04210000
N        1.48480000       2.93820000      -1.07700000
H       -0.81490000       1.76590000      -0.47170000
H        1.33820000       3.61820000       1.34470000
H        1.71000000       2.03780000       2.13850000
H        4.11210000       2.69690000       1.02670000
H        2.68690000       0.41070000       0.90840000
H        3.15800000       0.61630000      -0.79080000
H        3.01310000       4.47410000      -0.63680000
H        2.49080000       3.44500000      -2.89860000
H        2.97260000       1.80120000      -2.29060000
