16
Properties=species:S:1:pos:R:3 gdb_20893=T pbc="F F F"
C       -0.37150000       1.46000000       0.23860000
C        0.25710000       0.09910000      -0.06540000
N        0.79960000      -0.54950000       1.11820000
C        0.13650000      -1.17820000       2.12860000
C        1.13770000      -1.54190000       3.00580000
N        1.07710000      -2.27700000       4.18860000
N        2.32790000      -1.12560000       2.49650000
N        2.11570000      -0.52780000       1.35020000
H        0.36810000       2.13260000       0.68100000
H       -0.74450000       1.91260000      -0.68490000
H       -1.21060000       1.36450000       0.93390000
H       -0.47390000      -0.57570000      -0.52230000
H        1.09740000       0.20390000      -0.75450000
H       -0.93070000      -1.31740000       2.12830000
H        0.31300000      -2.01150000       4.79500000
H        1.95660000      -2.21740000       4.68670000
