19
Properties=species:S:1:pos:R:3 gdb_116424=T pbc="F F F"
O        0.14940000       1.38250000      -0.03290000
C        0.07770000      -0.02440000      -0.01580000
C       -1.36460000      -0.54960000       0.05760000
C       -1.46420000      -2.07600000      -0.13520000
C       -2.87780000      -2.57770000       0.14920000
O       -3.27310000      -2.25000000       1.47200000
C       -3.35250000      -0.85650000       1.68800000
C       -2.06060000      -0.11660000       1.34360000
O       -1.65690000       0.79090000       2.04170000
H       -0.24380000       1.66820000       0.80270000
H        0.53990000      -0.37940000      -0.94390000
H        0.65460000      -0.45390000       0.82000000
H       -1.93780000      -0.06270000      -0.74830000
H       -1.16450000      -2.34270000      -1.15510000
H       -0.77110000      -2.58030000       0.54940000
H       -3.59160000      -2.15380000      -0.57830000
H       -2.93200000      -3.66740000       0.07930000
H       -4.16190000      -0.40730000       1.08110000
H       -3.58600000      -0.69300000       2.74190000
