17
Properties=species:S:1:pos:R:3 gdb_60758=T pbc="F F F"
C        0.75640000       1.58420000      -0.54630000
C        0.12800000       0.37130000       0.13560000
C        0.08170000      -0.83880000      -0.79550000
O       -0.43710000      -1.89370000      -0.51500000
C        0.79900000       0.03010000       1.47260000
N        1.73090000       0.75880000       1.92270000
N        0.23670000      -1.10270000       2.09430000
C        0.58850000      -1.60940000       3.31960000
O        1.39120000      -1.12330000       4.08580000
H        1.80890000       1.39990000      -0.77610000
H        0.22620000       1.81300000      -1.47620000
H        0.71680000       2.45520000       0.10770000
H       -0.92750000       0.57800000       0.37110000
H        0.55760000      -0.69120000      -1.78790000
H        2.04040000       0.42280000       2.83590000
H       -0.38690000      -1.65810000       1.51790000
H        0.03360000      -2.53950000       3.54520000
