11
Properties=species:S:1:pos:R:3 gdb_1007=T pbc="F F F"
C        0.08400000      -1.19880000      -0.00500000
C        0.00710000       0.00380000       0.00280000
C       -0.07580000       1.40760000       0.01180000
C       -1.14530000       2.28270000       0.03070000
N       -0.71640000       3.58120000       0.03240000
C        0.59830000       3.51520000       0.01470000
N        1.04030000       2.23120000       0.00170000
H        0.14140000      -2.25890000      -0.01170000
H       -2.19330000       2.02700000       0.04310000
H        1.27440000       4.35710000       0.01060000
H        1.99550000       1.91390000      -0.01260000
