18
Properties=species:S:1:pos:R:3 gdb_59934=T pbc="F F F"
C        0.01750000       1.57780000       0.08910000
C        0.00150000       0.05240000       0.02730000
O        0.68390000      -0.52810000       1.13800000
C       -1.42520000      -0.50300000      -0.07990000
C       -1.44240000      -2.05500000      -0.16450000
C       -2.78730000      -2.60240000       0.00840000
C       -3.89990000      -3.02260000       0.17020000
C       -0.84810000      -2.51150000      -1.43220000
N       -0.36620000      -2.84120000      -2.42900000
H        1.04470000       1.93920000       0.18320000
H       -0.42390000       2.01560000      -0.81140000
H       -0.55590000       1.94030000       0.95190000
H        0.57480000      -0.27820000      -0.84680000
H        0.32710000      -0.13430000       1.94260000
H       -2.00000000      -0.21690000       0.80870000
H       -1.93990000      -0.08360000      -0.94960000
H       -0.79160000      -2.41820000       0.64200000
H       -4.88020000      -3.40820000       0.30750000
