21
Properties=species:S:1:pos:R:3 gdb_110420=T pbc="F F F"
C        0.19750000       1.30700000      -0.05640000
O       -0.18930000      -0.01060000       0.25910000
C        0.62520000      -0.61290000       1.23790000
C        0.17980000      -2.04790000       1.46000000
C        1.16290000      -2.56860000       0.43340000
C        1.95260000      -1.22140000       0.68840000
C        2.58890000      -1.87880000       1.93960000
C        1.41340000      -2.86110000       1.89420000
C        1.28750000      -4.16010000       2.63300000
H        1.20590000       1.35500000      -0.49420000
H       -0.51880000       1.68830000      -0.78830000
H        0.17910000       1.95980000       0.83090000
H        0.71870000       0.05590000       2.11070000
H       -0.82480000      -2.39650000       1.66360000
H        1.03220000      -3.20980000      -0.42580000
H        2.55370000      -0.67660000      -0.03650000
H        3.53160000      -2.38440000       1.70660000
H        2.72310000      -1.25010000       2.82940000
H        1.17060000      -3.99860000       3.71130000
H        0.41780000      -4.73000000       2.28830000
H        2.17500000      -4.78590000       2.48440000
