16
Properties=species:S:1:pos:R:3 gdb_26606=T pbc="F F F"
N       -0.03310000       1.40350000       0.12660000
C        0.00580000       0.01540000       0.04330000
C       -1.17580000      -0.68980000      -0.03360000
N       -2.42090000      -0.02980000      -0.09250000
C       -1.19420000      -2.12990000      -0.11380000
O       -2.21140000      -2.81590000      -0.20560000
N        0.07270000      -2.72300000      -0.09190000
C        1.24900000      -2.04090000       0.01640000
C        1.25070000      -0.68580000       0.08610000
H        0.81700000       1.86860000      -0.15860000
H       -0.85040000       1.79620000      -0.32660000
H       -2.59040000       0.54880000       0.72500000
H       -3.14940000      -0.73620000      -0.15690000
H        0.06340000      -3.73140000      -0.13990000
H        2.15080000      -2.63860000       0.03970000
H        2.18480000      -0.14480000       0.16920000
