19
Properties=species:S:1:pos:R:3 gdb_41346=T pbc="F F F"
C        0.06040000       1.48330000       0.11020000
O        1.48880000       1.42440000      -0.17480000
C        1.30540000       0.10950000      -0.77350000
C        2.15160000      -1.12000000      -0.39230000
C        1.05750000      -1.92970000       0.35660000
C        0.43810000      -0.84830000       1.23770000
C       -0.01680000      -0.04270000      -0.00060000
C       -0.88050000      -1.08510000      -0.68440000
O       -0.02160000      -2.25250000      -0.56080000
H       -0.14860000       1.93980000       1.08240000
H       -0.47760000       2.02610000      -0.67890000
H        1.18470000       0.21850000      -1.85920000
H        2.53510000      -1.64710000      -1.26850000
H        2.98900000      -0.87350000       0.26770000
H        1.38790000      -2.86150000       0.81650000
H       -0.39550000      -1.20180000       1.84990000
H        1.16240000      -0.31690000       1.85660000
H       -1.84590000      -1.27800000      -0.19800000
H       -1.05140000      -0.88520000      -1.74800000
