18
Properties=species:S:1:pos:R:3 gdb_30740=T pbc="F F F"
C       -0.25640000       1.37290000       0.21230000
N        0.44290000       0.13320000      -0.13010000
C        0.86240000      -0.67630000       0.91130000
C        0.78810000      -2.02400000       1.11170000
O        0.09060000      -2.89830000       0.30680000
C        1.47580000      -2.30780000       2.34560000
C        1.64550000      -3.65130000       2.97900000
C        1.90530000      -1.10210000       2.79680000
O        1.53970000      -0.09640000       1.93260000
H        0.39600000       1.99340000       0.82980000
H       -0.47340000       1.91930000      -0.70860000
H       -1.19730000       1.21070000       0.76000000
H       -0.06860000      -0.42890000      -0.79860000
H        0.70570000      -3.53940000      -0.06550000
H        2.25630000      -4.32070000       2.36010000
H        2.13360000      -3.56990000       3.95380000
H        0.67840000      -4.14580000       3.12370000
H        2.44390000      -0.78670000       3.67420000
