23
Properties=species:S:1:pos:R:3 gdb_110989=T pbc="F F F"
C       -0.04910000       1.60950000       0.06420000
C       -0.00600000       0.08290000       0.21250000
C       -1.38490000      -0.55480000       0.06410000
C       -2.01150000      -0.70770000      -1.37850000
C       -1.14380000      -2.00090000      -1.52210000
C       -1.49760000      -2.13840000       0.00340000
C       -0.75050000      -3.05700000       0.94360000
C       -3.02770000      -2.26440000      -0.10870000
C       -3.36130000      -1.33420000      -1.00770000
H        0.94270000       2.05020000       0.20580000
H       -0.40480000       1.90290000      -0.92920000
H       -0.72300000       2.05930000       0.80150000
H        0.70900000      -0.32980000      -0.50720000
H        0.38590000      -0.17000000       1.20710000
H       -2.06870000      -0.09920000       0.78930000
H       -1.99090000       0.09570000      -2.11500000
H       -1.52180000      -2.77950000      -2.18920000
H       -0.08410000      -1.81590000      -1.71770000
H        0.32360000      -2.84480000       0.94400000
H       -1.11110000      -2.95090000       1.97350000
H       -0.88060000      -4.10620000       0.65420000
H       -3.64620000      -2.95640000       0.44700000
H       -4.33070000      -1.05170000      -1.39340000
