20
Properties=species:S:1:pos:R:3 gdb_84652=T pbc="F F F"
C        0.11880000       1.56310000      -0.01930000
C        0.07130000       0.03060000       0.00150000
C        0.73720000      -0.57200000      -1.22190000
N        2.18360000      -0.84100000      -1.12270000
C        1.21430000      -1.98160000      -1.14770000
C        1.02370000      -2.71220000       0.12890000
C        0.75760000      -2.05780000       1.26110000
C        0.67790000      -0.54500000       1.30820000
O        1.95340000       0.02020000       1.60080000
H        1.15120000       1.91610000       0.03210000
H       -0.34330000       1.95700000      -0.93080000
H       -0.41780000       1.98240000       0.83770000
H       -0.97990000      -0.29100000      -0.02610000
H        0.36460000      -0.21780000      -2.18150000
H        2.62890000      -0.74190000      -2.03120000
H        1.19740000      -2.57330000      -2.05810000
H        1.11570000      -3.79430000       0.11120000
H        0.65320000      -2.59580000       2.19860000
H        0.03510000      -0.24040000       2.14160000
H        2.50980000      -0.22680000       0.84390000
