19
Properties=species:S:1:pos:R:3 gdb_63564=T pbc="F F F"
C       -0.05890000       1.50900000      -0.06810000
C       -0.06480000      -0.00030000       0.03160000
C       -1.15820000      -0.72250000      -0.72110000
O        1.24400000      -0.61140000      -0.06060000
C        0.58450000      -0.64980000       1.18190000
C        1.13580000      -0.07060000       2.50240000
N        0.80890000      -1.37760000       3.10570000
C        0.21400000      -1.90260000       1.95490000
N       -0.40220000      -2.96090000       1.63910000
H        0.79470000       1.93740000       0.46240000
H        0.00160000       1.81750000      -1.11740000
H       -0.98060000       1.92800000       0.34980000
H       -1.05980000      -0.53190000      -1.79550000
H       -1.10890000      -1.79650000      -0.53630000
H       -2.14190000      -0.35890000      -0.40510000
H        2.20480000       0.16050000       2.50120000
H        0.56940000       0.77740000       2.90380000
H        0.50140000      -1.53170000       4.05450000
H       -0.50830000      -3.59430000       2.43320000
