22
Properties=species:S:1:pos:R:3 gdb_81070=T pbc="F F F"
C       -0.23980000       1.49220000      -0.25450000
C        0.07260000       0.02160000      -0.05510000
N        1.33800000      -0.56600000      -0.72630000
C        2.11260000       0.03470000       0.46080000
C        0.86080000      -0.54840000       1.16620000
C        1.10970000      -1.75320000       0.22250000
C        0.48920000      -0.54280000       2.61250000
C        1.55250000      -0.64470000       3.68070000
C        0.80870000       0.65030000       3.48350000
H       -0.43510000       1.68880000      -1.31410000
H       -1.14400000       1.75390000       0.30520000
H        0.55610000       2.16520000       0.07060000
H       -0.80800000      -0.57070000      -0.33340000
H        3.07130000      -0.46100000       0.63790000
H        2.24760000       1.11570000       0.40900000
H        0.25500000      -2.37770000      -0.05500000
H        2.00760000      -2.35550000       0.38630000
H       -0.44860000      -1.04970000       2.82800000
H        1.33720000      -1.23600000       4.56360000
H        2.58810000      -0.68620000       3.36000000
H        1.34600000       1.47630000       3.02960000
H        0.08240000       0.94970000       4.23070000
