18
Properties=species:S:1:pos:R:3 gdb_29860=T pbc="F F F"
C       -0.02540000       1.44010000       0.01000000
N       -0.05320000      -0.00750000       0.00230000
C       -0.00720000      -0.79310000      -1.13150000
C        0.07560000      -2.09830000      -0.71580000
C        0.12100000      -3.50860000      -1.20970000
O        0.28060000      -4.30220000      -0.02290000
C        0.13510000      -3.52140000       1.17430000
C        0.08390000      -2.10590000       0.69620000
C        0.00610000      -0.80530000       1.12700000
H        0.99900000       1.83140000       0.00870000
H       -0.54560000       1.82210000      -0.87180000
H       -0.53980000       1.81280000       0.89920000
H       -0.03580000      -0.33930000      -2.10940000
H       -0.79970000      -3.80850000      -1.73460000
H        0.96510000      -3.71940000      -1.88040000
H       -0.77940000      -3.82710000       1.70670000
H        0.98700000      -3.73950000       1.83270000
H       -0.01090000      -0.36220000       2.11000000
