17
Properties=species:S:1:pos:R:3 gdb_68275=T pbc="F F F"
N       -0.06150000       1.38870000      -0.14450000
C        0.05040000      -0.02410000      -0.05300000
C        0.66970000      -0.96920000      -1.12020000
C        0.08400000      -1.91700000      -0.03350000
C        0.69940000      -0.97410000       1.03440000
C       -1.17780000      -0.98400000      -0.02050000
O       -1.95480000      -0.87910000       1.14790000
C       -2.05560000      -1.03160000      -1.19660000
N       -2.79310000      -1.10820000      -2.08370000
H       -0.52400000       1.76770000       0.67640000
H        0.85260000       1.82440000      -0.21330000
H        0.20590000      -0.97750000      -2.10830000
H        1.75920000      -0.95500000      -1.18550000
H        0.07690000      -3.00490000      -0.03990000
H        1.79080000      -0.95940000       1.07490000
H        0.24730000      -0.97950000       2.02430000
H       -2.63620000      -1.55980000       1.13180000
