18
Properties=species:S:1:pos:R:3 gdb_88266=T pbc="F F F"
C        0.31850000       1.58390000      -0.65220000
C        0.01480000       0.19100000      -0.16150000
N        1.14030000      -0.70320000       0.06330000
C        0.33030000      -0.29870000       1.23350000
C        0.99230000       0.57900000       2.23500000
O        1.93810000       1.30350000       1.99680000
C        0.41270000       0.55920000       3.64820000
N        0.99010000       1.50150000       4.44580000
N       -0.51700000      -0.28050000       3.92120000
H        1.22650000       1.96740000      -0.18610000
H        0.46400000       1.56980000      -1.73780000
H       -0.51300000       2.26180000      -0.43220000
H       -0.89540000      -0.24790000      -0.57090000
H        0.90090000      -1.66040000      -0.18270000
H       -0.36560000      -1.00800000       1.66360000
H        1.81800000       1.94390000       4.07440000
H        0.87860000       1.45410000       5.44400000
H       -0.81840000      -0.20670000       4.89560000
