21
Properties=species:S:1:pos:R:3 gdb_106618=T pbc="F F F"
C       -0.19050000       1.61410000      -0.15110000
C        0.02420000       0.12240000       0.04340000
C        1.19540000      -0.66320000      -0.60210000
C        2.47100000       0.07660000      -0.15150000
C        2.09500000       0.21540000       1.35650000
C        0.72060000      -0.49080000       1.29250000
C        0.01800000      -0.87930000       2.56820000
O        0.82610000      -1.73960000       3.35470000
O        1.04510000      -1.66090000       0.45720000
H        0.71320000       2.20080000       0.03320000
H       -0.51900000       1.82400000      -1.17480000
H       -0.97020000       1.98500000       0.52290000
H       -0.89990000      -0.43420000      -0.13770000
H        1.14990000      -1.07660000      -1.61010000
H        3.35770000      -0.54020000      -0.31110000
H        2.61990000       1.03280000      -0.66060000
H        2.76790000      -0.32610000       2.02190000
H        2.02740000       1.25130000       1.69960000
H       -0.18300000       0.00970000       3.17610000
H       -0.94780000      -1.34800000       2.32460000
H        1.08860000      -2.46630000       2.77730000
