12
Properties=species:S:1:pos:R:3 gdb_130875=T pbc="F F F"
O       -0.06390000       0.00630000       0.00030000
C       -0.00760000       1.21500000       0.00840000
C        1.24810000       1.97060000      -0.00000000
C        2.52130000       1.47950000      -0.01820000
O        3.40530000       2.47160000      -0.02060000
N        2.73880000       3.69610000      -0.00370000
C        1.45480000       3.39260000       0.00850000
C        0.46210000       4.40320000       0.02750000
C       -0.41120000       5.22930000       0.04370000
H       -0.92260000       1.84160000       0.02400000
H        2.91350000       0.47450000      -0.03030000
H       -1.17210000       5.97110000       0.05830000
