18
Properties=species:S:1:pos:R:3 gdb_75746=T pbc="F F F"
C        0.00330000       1.40780000       0.02520000
N        0.01530000      -0.03220000       0.03690000
C       -0.00760000      -0.78710000      -1.12790000
O       -0.03980000      -0.34020000      -2.25880000
C        0.01560000      -2.20570000      -0.67970000
C        0.04960000      -2.24490000       0.65610000
C        0.05170000      -0.86940000       1.19770000
C        0.83320000      -0.50390000       2.44690000
C       -0.67120000      -0.51640000       2.48510000
H        0.90270000       1.83080000       0.48970000
H       -0.02580000       1.71020000      -1.02360000
H       -0.87820000       1.81630000       0.53490000
H        0.00510000      -3.02970000      -1.37770000
H        0.07310000      -3.11660000       1.29710000
H        1.37980000      -1.29540000       2.94710000
H        1.33150000       0.45890000       2.45380000
H       -1.18450000       0.43780000       2.51790000
H       -1.17820000      -1.31670000       3.01220000
