20
Properties=species:S:1:pos:R:3 gdb_22814=T pbc="F F F"
C       -0.10880000       1.52700000       0.07200000
C        0.04700000      -0.01100000       0.04050000
C        0.73910000      -0.46670000      -1.22330000
C        1.92190000      -1.07890000      -1.25650000
C        2.73500000      -1.38720000      -0.02730000
C        2.28360000      -0.55320000       1.18940000
C        0.78030000      -0.52140000       1.26410000
N        0.05400000      -0.89700000       2.24450000
O        0.80890000      -1.33800000       3.34830000
H        0.86610000       2.02340000       0.10640000
H       -0.62820000       1.87810000      -0.82580000
H       -0.68670000       1.83390000       0.94790000
H       -0.96250000      -0.43900000       0.06600000
H        0.20770000      -0.26370000      -2.15080000
H        2.33790000      -1.38980000      -2.21190000
H        2.65690000      -2.45820000       0.20810000
H        3.79850000      -1.20500000      -0.22380000
H        2.70720000      -0.93950000       2.11530000
H        2.64510000       0.47510000       1.05950000
H        0.11820000      -1.59370000       3.96790000
