21
Properties=species:S:1:pos:R:3 gdb_105061=T pbc="F F F"
C        0.00440000       1.30280000      -0.59950000
O       -0.06600000      -0.05030000      -0.21400000
C       -1.31550000      -0.57440000       0.16240000
C       -2.09930000      -0.00620000       1.30970000
C       -2.62550000       0.11860000      -0.11130000
C       -1.25590000      -2.07390000      -0.02170000
C       -1.02860000      -2.54370000      -1.44000000
C       -0.85850000      -2.91410000       1.11630000
O       -2.23380000      -2.80610000       0.72450000
H        1.06000000       1.51250000      -0.78830000
H       -0.56360000       1.50250000      -1.51830000
H       -0.34620000       1.98730000       0.18660000
H       -2.59480000      -0.70270000       1.97500000
H       -1.71960000       0.89510000       1.77870000
H       -2.62510000       1.10300000      -0.56360000
H       -3.46670000      -0.50440000      -0.39590000
H       -0.09400000      -2.12940000      -1.82610000
H       -0.98380000      -3.63450000      -1.48220000
H       -1.84410000      -2.20620000      -2.08850000
H       -0.40170000      -3.88560000       0.93500000
H       -0.60960000      -2.44710000       2.06740000
