18
Properties=species:S:1:pos:R:3 gdb_78928=T pbc="F F F"
C       -0.05670000       1.55760000       0.00620000
N        0.03250000       0.10780000       0.01170000
C        1.04890000      -0.54530000      -0.83610000
C        2.48020000      -0.15290000      -0.33780000
C        2.20620000      -0.15610000       1.19000000
C        0.69570000      -0.55960000       1.15100000
C        1.14030000      -1.72070000       0.19630000
C        2.65250000      -1.40310000       0.46380000
O        3.76540000      -2.19590000       0.56830000
H        0.91090000       2.05610000       0.18530000
H       -0.44340000       1.89560000      -0.96110000
H       -0.75960000       1.88320000       0.78050000
H        0.84970000      -0.63510000      -1.90390000
H        3.23610000       0.48010000      -0.78190000
H        2.75130000       0.48700000       1.86800000
H        0.13590000      -0.66410000       2.08090000
H        0.63780000      -2.67860000       0.09780000
H        3.75260000      -2.62840000       1.42970000
