13
Properties=species:S:1:pos:R:3 gdb_130300=T pbc="F F F"
N       -0.02140000       1.38980000       0.15880000
C        0.06140000       0.01670000       0.04020000
N       -1.02640000      -0.73940000       0.00250000
O       -0.60370000      -2.10330000      -0.02550000
C        0.73300000      -2.09170000      -0.02410000
C        1.20650000      -0.81660000       0.01620000
O        2.56520000      -0.79370000       0.02630000
C        2.92680000      -2.11690000      -0.00960000
C        1.85720000      -2.96930000      -0.04040000
H        0.69410000       1.89480000      -0.34410000
H       -0.94780000       1.74440000      -0.03910000
H        3.98960000      -2.29720000      -0.00970000
H        1.89660000      -4.04540000      -0.06990000
