15
Properties=species:S:1:pos:R:3 gdb_24174=T pbc="F F F"
C       -0.02180000       1.38940000       0.01000000
C        1.28190000       1.85370000       0.00000000
N        2.11160000       0.76570000      -0.01370000
C        3.47230000       0.66810000      -0.02720000
C        4.04380000      -0.56730000      -0.03920000
C        3.19620000      -1.71240000      -0.03710000
N        1.88700000      -1.64280000      -0.02420000
C        1.31800000      -0.42320000      -0.01230000
C       -0.00900000      -0.02010000       0.00240000
H       -0.89850000       2.01970000       0.02180000
H        1.68200000       2.85500000       0.00150000
H        4.02550000       1.59990000      -0.02760000
H        5.12070000      -0.67080000      -0.05000000
H        3.63610000      -2.70680000      -0.04660000
H       -0.85440000      -0.68840000       0.00700000
