16
Properties=species:S:1:pos:R:3 gdb_36392=T pbc="F F F"
N        0.14910000      -1.03760000      -0.91970000
C        0.05550000       0.01210000      -0.44680000
C       -0.03600000       1.33830000       0.16510000
C        1.32720000       2.01270000       0.24070000
N        1.74010000       2.79960000      -0.92210000
C        1.52110000       3.48450000       0.35260000
C        0.37940000       4.49090000       0.40470000
C        0.82160000       5.82440000      -0.00460000
N        1.19170000       6.87290000      -0.31760000
H       -0.72860000       1.94440000      -0.42520000
H       -0.46200000       1.22820000       1.16940000
H        2.08090000       1.40320000       0.73540000
H        2.72680000       2.68550000      -1.13190000
H        2.39660000       3.79870000       0.91750000
H       -0.43410000       4.17840000      -0.25570000
H       -0.02360000       4.55620000       1.42230000
