21
Properties=species:S:1:pos:R:3 gdb_30731=T pbc="F F F"
C        0.23440000       1.00290000       0.60380000
N       -0.22800000       0.26860000      -0.58090000
C       -1.28710000      -0.63580000      -0.36300000
C       -1.32860000      -1.97510000      -0.02480000
C       -0.15240000      -2.86590000       0.23610000
C       -2.71130000      -2.35320000       0.03070000
C       -3.24560000      -3.71360000       0.36100000
C       -3.45180000      -1.23170000      -0.26180000
N       -2.58310000      -0.19500000      -0.49880000
H        1.03680000       1.68740000       0.31170000
H       -0.59010000       1.60180000       1.00140000
H        0.59990000       0.35500000       1.41520000
H        0.55010000      -0.20060000      -1.02710000
H       -0.19550000      -3.32090000       1.23350000
H       -0.08920000      -3.69200000      -0.48380000
H        0.78850000      -2.30900000       0.17520000
H       -2.93060000      -4.04880000       1.35750000
H       -4.33960000      -3.72210000       0.34320000
H       -2.89910000      -4.47430000      -0.35000000
H       -4.51990000      -1.09160000      -0.31560000
H       -2.82340000       0.72560000      -0.82190000
