15
Properties=species:S:1:pos:R:3 gdb_49299=T pbc="F F F"
O       -0.90910000       1.22340000       0.39500000
C        0.21040000       0.85680000       0.12120000
C        1.37710000       1.78320000       0.05920000
C        1.22080000       3.10340000       0.24310000
C        2.39390000       4.02660000       0.18240000
C        3.66110000       3.24760000       0.51980000
O        3.77470000       2.03400000      -0.23860000
C        2.69700000       1.21400000      -0.32630000
O        2.83080000       0.09780000      -0.75800000
H        0.44690000      -0.19910000      -0.10180000
H        0.22000000       3.48950000       0.42180000
H        2.46110000       4.46960000      -0.82180000
H        2.27490000       4.86280000       0.88010000
H        4.56420000       3.81630000       0.29150000
H        3.67070000       2.99720000       1.58830000
