14
Properties=species:S:1:pos:R:3 gdb_124150=T pbc="F F F"
C       -0.02670000       1.44840000       0.01050000
C        0.00820000      -0.00340000       0.00200000
C        0.03390000      -1.20820000      -0.00460000
C        0.06070000      -2.63300000      -0.01220000
N        1.26390000      -3.24140000      -0.02240000
C        1.21890000      -4.56330000      -0.02900000
C       -0.00030000      -5.23970000      -0.02540000
N       -1.15710000      -4.57940000      -0.01520000
N       -1.13590000      -3.25550000      -0.00840000
H        0.98360000       1.87020000       0.00300000
H       -0.56080000       1.83080000      -0.86620000
H       -0.54340000       1.82090000       0.90170000
H        2.16660000      -5.09750000      -0.03730000
H       -0.06400000      -6.32270000      -0.03060000
