21
Properties=species:S:1:pos:R:3 gdb_110213=T pbc="F F F"
C        1.35730000       0.72770000       1.29200000
C        0.61910000      -0.48680000       0.80480000
C        1.06710000      -1.34300000      -0.37610000
O        0.58680000      -2.55630000       0.25730000
C        0.21640000      -1.81290000       1.43130000
C        0.40950000      -2.49180000       2.74720000
C       -0.85340000      -0.81950000       1.05620000
C       -1.60750000      -0.09470000       2.14750000
O       -2.55500000      -0.92460000       2.81000000
H        2.43480000       0.53370000       1.33860000
H        1.20440000       1.58130000       0.61990000
H        1.03780000       1.03800000       2.29030000
H        0.59540000      -1.16270000      -1.35040000
H        2.15750000      -1.37600000      -0.49650000
H        1.45910000      -2.76260000       2.89960000
H        0.08080000      -1.85970000       3.57480000
H       -0.18610000      -3.41100000       2.77830000
H       -1.46410000      -1.07370000       0.18690000
H       -0.93040000       0.24880000       2.93460000
H       -2.09240000       0.80250000       1.73140000
H       -3.12670000      -1.30990000       2.13820000
