19
Properties=species:S:1:pos:R:3 gdb_128206=T pbc="F F F"
C        0.14990000       1.38300000       0.04300000
N        0.05760000      -0.06870000       0.05860000
C       -1.21560000      -0.62230000       0.04620000
C       -2.46820000      -0.04890000       0.18240000
C       -3.36160000      -1.15670000       0.16580000
N       -4.74080000      -1.12790000       0.32290000
C       -5.47310000       0.03600000      -0.14310000
N       -2.73240000      -2.31500000       0.01370000
N       -1.40750000      -1.95840000      -0.06580000
H        1.20330000       1.67180000       0.05520000
H       -0.33440000       1.84630000      -0.83040000
H       -0.32110000       1.78520000       0.94490000
H        0.68350000      -0.50660000      -0.60410000
H       -2.70030000       0.99860000       0.26120000
H       -5.15270000      -2.00860000       0.04650000
H       -6.54040000      -0.12400000       0.03010000
H       -5.17930000       0.91950000       0.43310000
H       -5.32290000       0.26370000      -1.21090000
H       -0.70930000      -2.67880000      -0.01740000
