19
Properties=species:S:1:pos:R:3 gdb_66583=T pbc="F F F"
C        0.01360000       1.48360000       0.06110000
C        0.00800000      -0.01260000      -0.01510000
C       -0.94210000      -0.89630000       0.81150000
C        0.55560000      -1.04660000       0.94840000
C        0.44910000      -2.07860000      -0.22600000
C       -1.09440000      -2.18280000      -0.01740000
C       -1.71810000      -1.95980000      -1.39640000
O       -0.76340000      -1.15500000      -2.11360000
C        0.31440000      -0.90550000      -1.22980000
H        0.98180000       1.89620000      -0.24520000
H       -0.75390000       1.91330000      -0.59300000
H       -0.18650000       1.83080000       1.08080000
H       -1.64510000      -0.45590000       1.50780000
H        1.21570000      -0.95660000       1.79760000
H        1.07730000      -2.94480000      -0.41740000
H       -1.45860000      -3.05110000       0.53290000
H       -1.87680000      -2.89710000      -1.94710000
H       -2.67800000      -1.43050000      -1.33630000
H        1.19560000      -0.62330000      -1.80870000
