18
Properties=species:S:1:pos:R:3 gdb_24440=T pbc="F F F"
C       -0.01430000       1.51700000      -0.01620000
C        1.42070000       2.05450000       0.04490000
O        2.09250000       1.70680000       1.25510000
C        1.94170000       0.38570000       1.56660000
C        0.99360000      -0.44510000       1.01350000
C       -0.03210000      -0.02730000       0.01380000
N        1.16760000      -1.68290000       1.59800000
C        2.19950000      -1.63070000       2.50030000
C        2.70900000      -0.35040000       2.50740000
H       -0.56980000       1.90870000       0.84310000
H       -0.50000000       1.89430000      -0.92180000
H        1.99810000       1.66940000      -0.81030000
H        1.43180000       3.14670000       0.00350000
H       -1.03590000      -0.38400000       0.27960000
H        0.18090000      -0.42790000      -0.98850000
H        0.62230000      -2.50050000       1.39110000
H        2.49250000      -2.50420000       3.05960000
H        3.52640000       0.01720000       3.10660000
