20
Properties=species:S:1:pos:R:3 gdb_69783=T pbc="F F F"
C        0.20430000       1.47340000       0.03480000
C        0.00690000      -0.02130000       0.01220000
C       -0.87620000      -0.69330000       1.00300000
N        0.59050000      -0.80470000       1.13520000
C        1.07610000      -2.04740000       0.56750000
C        2.27960000      -1.93630000      -0.33640000
C        0.89020000      -2.07000000      -0.92710000
O        0.52050000      -3.25100000      -1.57150000
C        0.19860000      -0.76410000      -1.31880000
H        1.18850000       1.74430000      -0.36440000
H       -0.55450000       1.97500000      -0.57670000
H        0.13450000       1.85900000       1.05510000
H       -1.36110000      -0.11040000       1.78100000
H       -1.42270000      -1.57820000       0.68290000
H        0.94510000      -2.93770000       1.17300000
H        2.79630000      -0.98310000      -0.39870000
H        2.91410000      -2.81390000      -0.39850000
H        1.00140000      -3.30170000      -2.40500000
H       -0.75400000      -0.98610000      -1.81040000
H        0.79720000      -0.16130000      -2.01340000
