18
Properties=species:S:1:pos:R:3 gdb_60787=T pbc="F F F"
C       -0.05340000       1.58500000       0.07920000
C       -0.00160000       0.04390000       0.03260000
C        0.73560000      -0.53130000       1.26280000
C       -1.37800000      -0.48100000       0.04310000
N       -2.45310000      -0.90160000       0.09200000
C        0.65620000      -0.43900000      -1.30830000
O       -0.07410000       0.01400000      -2.40690000
C        2.10690000       0.00360000      -1.43310000
O        2.47470000       0.66830000      -2.37110000
H        0.96070000       1.99410000       0.13120000
H       -0.54360000       1.97280000      -0.81500000
H       -0.60510000       1.92490000       0.95870000
H        0.17100000      -0.31280000       2.17220000
H        0.84810000      -1.61700000       1.19050000
H        1.72600000      -0.08070000       1.36920000
H        0.67060000      -1.54320000      -1.28060000
H        0.55360000       0.50570000      -2.96100000
H        2.81200000      -0.33140000      -0.64970000
