21
Properties=species:S:1:pos:R:3 gdb_105476=T pbc="F F F"
C        0.10840000       1.48290000      -0.14230000
C       -0.05650000      -0.02220000       0.07510000
C       -1.52140000      -0.50120000       0.06960000
C       -2.14160000      -0.55940000      -1.36220000
O       -1.97070000      -1.98630000      -1.42590000
C       -1.63650000      -2.05320000      -0.02830000
C       -2.32210000       0.13770000       1.10010000
C       -2.99070000       0.65870000       1.95700000
C       -3.80390000       1.28600000       2.98930000
H        1.16610000       1.76230000      -0.13560000
H       -0.31040000       1.79740000      -1.10450000
H       -0.39980000       2.04890000       0.64360000
H        0.47690000      -0.57620000      -0.70720000
H        0.39620000      -0.31080000       1.03140000
H       -3.19750000      -0.26630000      -1.40260000
H       -1.58580000      -0.04050000      -2.15180000
H       -0.71170000      -2.61390000       0.15220000
H       -2.44940000      -2.47860000       0.57240000
H       -4.64300000       0.64430000       3.28020000
H       -3.21580000       1.49120000       3.89070000
H       -4.22080000       2.23820000       2.64280000
