19
Properties=species:S:1:pos:R:3 gdb_53900=T pbc="F F F"
C        0.12080000       1.47220000      -0.11890000
C       -0.16780000      -0.01170000      -0.02540000
O       -0.52400000      -0.54830000       0.99260000
C        0.01370000      -0.82440000      -1.34040000
C        1.44080000      -0.88480000      -1.65780000
C        2.62120000      -0.93890000      -1.88100000
C       -0.61850000      -2.20190000      -1.23870000
C       -2.07090000      -2.38380000      -1.58890000
C       -0.99750000      -2.95020000      -2.48740000
H        1.08250000       1.64780000      -0.60900000
H       -0.64880000       1.95390000      -0.73450000
H        0.11300000       1.91630000       0.87690000
H       -0.48790000      -0.25700000      -2.13880000
H        3.66020000      -0.99370000      -2.09360000
H       -0.24400000      -2.78390000      -0.40480000
H       -2.65870000      -3.06510000      -0.98480000
H       -2.62410000      -1.51980000      -1.94400000
H       -0.82710000      -2.46570000      -3.44340000
H       -0.84890000      -4.02400000      -2.50500000
