14
Properties=species:S:1:pos:R:3 gdb_128001=T pbc="F F F"
C       -0.02600000       1.43440000      -0.13560000
N        0.00330000      -0.01870000      -0.17560000
C       -1.03450000      -0.65990000       0.13150000
O       -2.19600000      -0.00330000       0.50500000
N       -3.38580000      -0.66750000       0.85790000
C       -3.34270000      -1.94370000       0.81720000
N       -2.25780000      -2.70900000       0.46580000
C       -1.03400000      -2.16500000       0.09920000
O       -0.09330000      -2.84990000      -0.20620000
H        0.95240000       1.81760000      -0.43040000
H       -0.78730000       1.83950000      -0.81400000
H       -0.26590000       1.80340000       0.86960000
H       -4.25320000      -2.46640000       1.08700000
H       -2.31860000      -3.71770000       0.46280000
