21
Properties=species:S:1:pos:R:3 gdb_98755=T pbc="F F F"
C        0.48310000       1.51630000       0.17600000
C        0.49460000       0.00210000      -0.01620000
C        0.30320000      -0.43520000      -1.46320000
O        0.04410000       0.35790000      -2.34350000
C        0.50310000      -1.91140000      -1.74570000
C        0.13300000      -2.46150000      -3.15840000
C        1.59530000      -2.88080000      -3.36700000
C        2.50110000      -1.68850000      -3.25530000
C        1.97770000      -2.32610000      -1.99560000
H        1.30030000       1.98640000      -0.37770000
H       -0.44930000       1.94690000      -0.19680000
H        0.58910000       1.77490000       1.23340000
H        1.42710000      -0.44410000       0.35530000
H       -0.30130000      -0.47600000       0.57330000
H        0.06590000      -2.51030000      -0.94140000
H       -0.55720000      -3.30520000      -3.09670000
H       -0.25940000      -1.72070000      -3.85870000
H        1.92000000      -3.80460000      -3.82940000
H        3.55010000      -1.88150000      -3.45590000
H        2.15600000      -0.70490000      -3.56160000
H        2.63570000      -2.74180000      -1.24210000
