18
Properties=species:S:1:pos:R:3 gdb_12264=T pbc="F F F"
C        0.08820000       1.47080000       0.20310000
C        0.02090000      -0.04140000      -0.03760000
C       -1.40440000      -0.58150000       0.00990000
C       -1.68030000      -2.12030000      -0.08780000
C       -2.79060000      -1.98830000       1.01640000
O       -2.94440000      -2.94260000       2.02060000
C       -2.09130000      -0.67820000       1.37990000
O       -1.87340000      -0.18720000       2.45560000
H        1.12160000       1.82810000       0.16640000
H       -0.48060000       2.01800000      -0.55710000
H       -0.32580000       1.72330000       1.18290000
H        0.46290000      -0.28970000      -1.01040000
H        0.62170000      -0.56150000       0.71870000
H       -2.04680000      -0.04120000      -0.69650000
H       -2.00080000      -2.51040000      -1.05390000
H       -0.83380000      -2.70100000       0.28800000
H       -3.75870000      -1.80370000       0.53230000
H       -2.49810000      -2.60120000       2.80600000
