16
Properties=species:S:1:pos:R:3 gdb_6690=T pbc="F F F"
C        0.01870000       1.48200000      -0.36330000
C        0.07340000       0.01380000       0.08280000
O        0.86690000      -0.15150000       1.25540000
C       -1.27240000      -0.54710000       0.25240000
C       -2.38660000      -0.96880000       0.43430000
C       -3.71220000      -1.54470000       0.60330000
C       -3.86510000      -2.87920000      -0.13300000
O       -4.87090000      -3.21500000      -0.69510000
H        1.03630000       1.86450000      -0.47620000
H       -0.51000000       1.58100000      -1.31560000
H       -0.50600000       2.08920000       0.38150000
H        0.60100000      -0.56600000      -0.68430000
H        0.38380000       0.24580000       1.98860000
H       -3.89920000      -1.75140000       1.66860000
H       -4.50900000      -0.87410000       0.26550000
H       -2.96360000      -3.52780000      -0.09350000
