17
Properties=species:S:1:pos:R:3 gdb_76530=T pbc="F F F"
C       -0.09240000       1.52780000      -0.07090000
C        0.05720000       0.02340000      -0.03620000
C        1.41210000      -0.62910000      -0.14730000
O        2.56770000       0.15460000      -0.14620000
C        0.68290000      -0.65230000       1.16530000
C        1.13740000      -0.11610000       2.51220000
O        0.64080000      -1.34900000       3.14030000
C        0.21180000      -1.85200000       1.93010000
O       -0.32880000      -2.88970000       1.71470000
H        0.80600000       2.02010000       0.30960000
H       -0.25830000       1.87480000      -1.09640000
H       -0.94580000       1.85500000       0.53090000
H       -0.76020000      -0.54190000      -0.47770000
H        1.48600000      -1.57440000      -0.68410000
H        2.69950000       0.50020000      -1.03590000
H        2.21470000      -0.01150000       2.65010000
H        0.60560000       0.75450000       2.90220000
