18
Properties=species:S:1:pos:R:3 gdb_16063=T pbc="F F F"
C       -0.02250000       1.55470000       0.13610000
C        0.04450000       0.04400000       0.17100000
C        1.28280000      -0.73230000      -0.16560000
O        2.46340000      -0.03130000       0.23200000
C        2.06050000      -0.12210000       1.62640000
C        0.73840000      -0.78910000       1.24940000
C        0.06480000      -1.87970000       2.02340000
O       -0.60680000      -1.39860000       3.18270000
H        0.96620000       1.98990000       0.29750000
H       -0.37700000       1.89830000      -0.84130000
H       -0.70480000       1.95000000       0.89640000
H       -0.85380000      -0.46320000      -0.18120000
H        1.37860000      -1.47760000      -0.94810000
H        2.73240000      -0.79270000       2.17480000
H        2.03190000       0.85540000       2.12000000
H       -0.62120000      -2.43360000       1.36210000
H        0.80400000      -2.59790000       2.39650000
H       -1.24120000      -0.73530000       2.89100000
