15
Properties=species:S:1:pos:R:3 gdb_46105=T pbc="F F F"
N        0.03990000       1.21700000      -0.08380000
C        0.02130000      -0.03600000       0.00140000
C       -1.11370000      -0.94650000      -0.40950000
O       -0.72320000      -2.23430000       0.05080000
C        0.64690000      -2.19770000       0.36120000
C        1.47090000      -2.88860000      -0.74490000
C        2.89650000      -2.92650000      -0.43700000
N        4.02080000      -2.95920000      -0.17450000
O        1.02490000      -0.83430000       0.48300000
H        0.92570000       1.60200000       0.24540000
H       -2.05440000      -0.65920000       0.06600000
H       -1.25190000      -0.93000000      -1.49840000
H        0.81150000      -2.69060000       1.32520000
H        1.09410000      -3.90980000      -0.86150000
H        1.31110000      -2.36360000      -1.69260000
