18
Properties=species:S:1:pos:R:3 gdb_120601=T pbc="F F F"
O       -0.12450000       1.44000000       0.05460000
C       -0.05880000       0.03450000       0.22740000
C       -1.36400000      -0.55200000      -0.30310000
C       -1.39680000      -2.05970000      -0.18100000
C       -1.80810000      -2.73570000       1.10420000
C       -2.72500000      -2.78540000      -0.10860000
O       -3.86820000      -1.98630000      -0.12980000
C       -2.85700000      -4.04530000      -0.81120000
N       -2.97980000      -5.05730000      -1.35820000
H        0.69960000       1.82260000       0.36920000
H        0.79480000      -0.39770000      -0.32040000
H        0.06600000      -0.23640000       1.28840000
H       -2.20320000      -0.10970000       0.23960000
H       -1.47810000      -0.25920000      -1.35280000
H       -0.63850000      -2.58290000      -0.75710000
H       -1.30800000      -3.64560000       1.41440000
H       -2.16270000      -2.10000000       1.90890000
H       -4.54620000      -2.41060000       0.40880000
