18
Properties=species:S:1:pos:R:3 gdb_41544=T pbc="F F F"
C        0.01470000       1.49980000       0.34090000
O        1.34730000       1.64530000      -0.20480000
C        1.42430000       0.22970000      -0.50320000
C       -0.03250000       0.00600000      -0.04130000
C       -0.64080000      -0.35410000      -1.38540000
C       -0.02990000       0.49070000      -2.53810000
C       -0.12820000      -0.78350000      -3.38580000
N        0.35440000      -1.35210000      -2.04830000
C        1.28620000      -0.10520000      -1.97930000
H        0.00280000       1.69450000       1.42010000
H       -0.71000000       2.15980000      -0.15130000
H        2.25590000      -0.26080000       0.00970000
H       -0.24480000      -0.71190000       0.75020000
H       -1.68770000      -0.65990000      -1.43240000
H       -0.24010000       1.52970000      -2.81140000
H       -1.12120000      -1.13860000      -3.67700000
H        0.58780000      -0.91870000      -4.20130000
H        2.17720000      -0.16270000      -2.60640000
