13
Properties=species:S:1:pos:R:3 gdb_2146=T pbc="F F F"
O        0.14800000       1.34940000       0.29750000
C       -0.01770000      -0.01820000       0.02740000
C       -1.48230000      -0.46320000      -0.12360000
C       -1.43620000      -1.41000000      -1.29980000
C       -0.26560000      -1.39200000      -1.95490000
C        0.63020000      -0.41370000      -1.31100000
O        1.65860000       0.07960000      -1.71960000
H        0.97530000       1.59990000      -0.13950000
H        0.46350000      -0.63750000       0.80560000
H       -1.89730000      -0.93310000       0.77350000
H       -2.10810000       0.40880000      -0.34890000
H       -2.29110000      -2.01840000      -1.57680000
H       -0.00880000      -1.94100000      -2.85130000
