21
Properties=species:S:1:pos:R:3 gdb_87233=T pbc="F F F"
C       -0.05960000       1.51090000      -0.15610000
C        0.03730000       0.01060000       0.00160000
C        1.38410000      -0.68870000      -0.08270000
C        0.64330000      -0.60840000       1.23300000
O        1.12210000       0.30430000       2.19280000
C        0.01630000      -1.85330000       1.82930000
C        1.02250000      -2.68690000       2.65270000
C        0.43740000      -3.89940000       3.20920000
C       -0.07050000      -4.89390000       3.65400000
H        0.76180000       2.00910000       0.36310000
H       -0.02820000       1.79570000      -1.21320000
H       -0.99600000       1.89090000       0.26630000
H       -0.79780000      -0.54350000      -0.42060000
H        1.45350000      -1.64430000      -0.59220000
H        2.25670000      -0.05200000      -0.19320000
H        2.01600000       0.04380000       2.43600000
H       -0.81850000      -1.56250000       2.47660000
H       -0.39720000      -2.47540000       1.02900000
H        1.88030000      -2.95110000       2.01960000
H        1.41550000      -2.06640000       3.46790000
H       -0.50820000      -5.77460000       4.05380000
