13
Properties=species:S:1:pos:R:3 gdb_130783=T pbc="F F F"
O       -0.09730000       0.08550000      -0.82780000
C       -0.06880000       1.21430000      -0.42320000
O       -1.12480000       2.07670000      -0.34660000
N       -0.70260000       3.32240000       0.18970000
C        0.55900000       3.17290000       0.40760000
N        1.01820000       1.93340000       0.06490000
C        2.36560000       1.38190000       0.14010000
C        3.02980000       1.69300000       1.39920000
C        3.58510000       1.97330000       2.42590000
H        1.18210000       3.94580000       0.83160000
H        2.24620000       0.30130000       0.00530000
H        2.96650000       1.74610000      -0.70290000
H        4.07680000       2.20310000       3.33950000
