22
Properties=species:S:1:pos:R:3 gdb_101333=T pbc="F F F"
C       -0.25730000       1.50110000      -0.01280000
C       -0.14530000      -0.01660000      -0.16990000
C        0.95610000      -0.44260000      -1.14820000
O        2.24040000       0.03940000      -0.75450000
C        0.97410000      -1.94840000      -1.33320000
N        0.10610000      -2.50860000      -2.38440000
C        1.57520000      -2.64470000      -2.49940000
C        2.19300000      -1.95750000      -3.69430000
O        1.85980000      -2.63870000      -4.89390000
H        0.70120000       1.92790000       0.29410000
H       -0.54270000       1.97290000      -0.95930000
H       -1.01060000       1.76820000       0.73430000
H        0.05600000      -0.48140000       0.80750000
H       -1.09540000      -0.43800000      -0.52030000
H        0.76420000       0.02730000      -2.11750000
H        2.45080000      -0.34880000       0.10230000
H        1.01740000      -2.49800000      -0.39010000
H       -0.31180000      -3.38160000      -2.07570000
H        1.98540000      -3.63500000      -2.30620000
H        1.88560000      -0.90470000      -3.73660000
H        3.28470000      -1.97980000      -3.61740000
H        0.89610000      -2.65960000      -4.92700000
