16
Properties=species:S:1:pos:R:3 gdb_14541=T pbc="F F F"
O       -0.13850000       1.36320000      -0.02110000
C       -0.06300000      -0.03820000       0.02230000
C        1.02930000      -0.60550000      -0.73090000
C        1.96600000      -1.04790000      -1.34250000
C       -0.46560000      -0.81330000       1.26550000
C       -1.53460000      -0.03430000       2.04020000
C       -2.43970000      -0.03440000       0.76660000
C       -1.35390000      -0.80910000       0.00920000
H        0.67690000       1.71200000       0.35650000
H        2.78380000      -1.43990000      -1.89480000
H        0.17420000      -1.59470000       1.65750000
H       -1.96420000      -0.61760000       2.85690000
H       -1.22830000       0.94290000       2.42150000
H       -3.34540000      -0.62840000       0.90450000
H       -2.70590000       0.93930000       0.35130000
H       -1.51920000      -1.58770000      -0.72540000
