20
Properties=species:S:1:pos:R:3 gdb_107225=T pbc="F F F"
O        0.01210000       1.34480000       0.36310000
C       -0.04780000      -0.01690000      -0.04360000
C       -1.48450000      -0.46300000       0.05280000
C       -1.97920000      -1.14090000       1.27840000
N       -1.71700000      -1.92350000       0.06040000
C       -2.84390000      -2.19940000      -0.83020000
C       -4.24360000      -1.70390000      -0.55490000
C       -3.33420000      -0.92110000      -1.47110000
C       -2.50040000       0.21750000      -0.87610000
H        0.90710000       1.66240000       0.21260000
H        0.30040000      -0.13730000      -1.08270000
H        0.57550000      -0.66290000       0.59190000
H       -1.29080000      -1.34240000       2.09580000
H       -3.00160000      -0.97050000       1.59850000
H       -2.72510000      -3.11800000      -1.39330000
H       -5.04780000      -2.26560000      -1.01940000
H       -4.50950000      -1.29520000       0.41300000
H       -3.58380000      -0.87270000      -2.52530000
H       -3.10530000       0.96440000      -0.35260000
H       -1.96690000       0.74750000      -1.67070000
