18
Properties=species:S:1:pos:R:3 gdb_16011=T pbc="F F F"
C       -0.01960000       1.49650000       0.05270000
C        1.31570000       0.79330000      -0.00540000
C        0.01800000      -0.00350000      -0.02700000
O       -0.34710000      -0.64030000       1.16790000
C       -0.11400000      -2.04340000       1.13080000
C       -0.98500000      -2.71330000       0.06480000
C       -0.87570000      -1.95180000      -1.23030000
C       -0.38850000      -0.71120000      -1.26070000
H       -0.32700000       1.90770000       1.00730000
H       -0.36140000       2.04820000      -0.81610000
H        1.90310000       0.85790000      -0.91470000
H        1.88910000       0.73820000       0.91280000
H        0.94880000      -2.24510000       0.92540000
H       -0.34480000      -2.41410000       2.13300000
H       -0.66440000      -3.75420000      -0.07150000
H       -2.03020000      -2.75420000       0.40140000
H       -1.19230000      -2.44190000      -2.14640000
H       -0.26850000      -0.17140000      -2.19590000
