14
Properties=species:S:1:pos:R:3 gdb_21272=T pbc="F F F"
C       -0.02480000       1.37690000       0.03030000
O        0.04550000      -0.05250000      -0.02510000
C        0.63460000      -0.54660000      -1.11070000
N        1.16500000       0.11300000      -2.11970000
C        1.61010000      -0.90780000      -2.92220000
N        2.19000000      -0.64790000      -4.14910000
N        1.39760000      -2.13170000      -2.47250000
N        0.74980000      -1.87270000      -1.28010000
H        0.97820000       1.81200000       0.02460000
H       -0.58600000       1.76780000      -0.82250000
H       -0.53650000       1.60990000       0.96420000
H        2.67700000       0.23610000      -4.17460000
H        2.75270000      -1.41280000      -4.49330000
H        0.43590000      -2.62080000      -0.68800000
