16
Properties=species:S:1:pos:R:3 gdb_76435=T pbc="F F F"
O       -0.47120000       1.60600000       0.17910000
C       -0.53940000       0.32740000      -0.37500000
C       -0.27310000      -0.81360000       0.59410000
O       -0.05490000      -0.45300000       1.92520000
C       -1.68250000      -0.55370000       0.09480000
O       -2.53400000       0.05370000       1.02240000
C       -2.44050000      -1.49790000      -0.82410000
C       -1.59410000      -2.11660000      -1.84100000
N       -0.90510000      -2.59530000      -2.63540000
H       -1.35820000       1.79890000       0.51940000
H       -0.17200000       0.25720000      -1.39410000
H        0.27170000      -1.69280000       0.26320000
H        0.24670000       0.46900000       1.90210000
H       -2.11980000      -0.09280000       1.88950000
H       -2.91070000      -2.28590000      -0.22400000
H       -3.24920000      -0.94920000      -1.32150000
