23
Properties=species:S:1:pos:R:3 gdb_83996=T pbc="F F F"
C       -0.03920000       1.47070000      -0.03980000
C        0.02970000      -0.04470000      -0.00630000
C       -1.20270000      -0.73140000      -0.59060000
C       -1.43790000      -2.18310000      -0.13600000
C       -1.21830000      -2.33010000       1.37260000
C        0.24040000      -2.02690000       1.74600000
C        0.73700000      -0.69800000       1.17840000
C        1.40110000      -0.65930000      -0.17640000
O        1.57990000      -1.88590000      -0.82910000
H        0.88070000       1.92460000       0.34260000
H       -0.19120000       1.83930000      -1.06220000
H       -0.87020000       1.84240000       0.57180000
H       -2.07450000      -0.13450000      -0.28940000
H       -1.17440000      -0.67660000      -1.68820000
H       -2.45820000      -2.47760000      -0.40670000
H       -0.75650000      -2.85840000      -0.66210000
H       -1.88800000      -1.64190000       1.90700000
H       -1.48110000      -3.34240000       1.69960000
H        0.34870000      -2.01090000       2.83500000
H        0.87750000      -2.83940000       1.37870000
H        1.15440000      -0.01260000       1.91060000
H        2.23820000       0.02950000      -0.30020000
H        1.44090000      -1.74630000      -1.77130000
