19
Properties=species:S:1:pos:R:3 gdb_95296=T pbc="F F F"
C       -0.56820000       1.43470000      -0.03790000
C        0.10620000       0.07470000      -0.04720000
O        1.10760000       0.04900000      -1.05830000
C        1.91340000      -1.10020000      -0.80660000
C        2.04570000      -1.17450000       0.70950000
O        2.97300000      -0.20200000       1.23410000
C        1.91160000       0.58430000       1.81140000
C        0.83330000      -0.37060000       1.24050000
O        0.01410000      -1.04030000       2.16220000
H        0.15400000       2.23450000       0.14560000
H       -1.04780000       1.62450000      -1.00160000
H       -1.34300000       1.47600000       0.73590000
H       -0.64820000      -0.70860000      -0.24430000
H        1.42600000      -2.01220000      -1.18860000
H        2.87290000      -0.96440000      -1.31060000
H        2.21370000      -2.17740000       1.11210000
H        1.94470000       0.58110000       2.90770000
H        1.92060000       1.61510000       1.44040000
H       -0.69510000      -0.44560000       2.43080000
