22
Properties=species:S:1:pos:R:3 gdb_7199=T pbc="F F F"
C       -0.07060000       1.50630000      -0.07930000
C       -0.02180000       0.00540000       0.15770000
O       -1.31260000      -0.52230000      -0.07500000
C       -1.41690000      -1.94160000      -0.00620000
C       -1.44670000      -2.43980000       1.44160000
C       -2.68510000      -2.32450000      -0.77110000
C       -2.63080000      -1.95800000      -2.25510000
O       -3.80220000      -2.34860000      -2.95810000
H        0.91430000       1.95200000       0.08930000
H       -0.38030000       1.72360000      -1.10560000
H       -0.78580000       1.97810000       0.60050000
H        0.70790000      -0.46910000      -0.52010000
H        0.31280000      -0.20220000       1.18620000
H       -0.54500000      -2.38670000      -0.51780000
H       -1.52560000      -3.53110000       1.47000000
H       -0.53890000      -2.15900000       1.98300000
H       -2.30630000      -2.01590000       1.97060000
H       -2.85920000      -3.40190000      -0.67520000
H       -3.53770000      -1.81590000      -0.29990000
H       -2.43240000      -0.88330000      -2.36150000
H       -1.80590000      -2.49230000      -2.74070000
H       -4.53410000      -1.82520000      -2.61670000
