19
Properties=species:S:1:pos:R:3 gdb_81094=T pbc="F F F"
C       -0.18260000       1.55540000       0.80740000
C       -0.13910000       0.07150000       0.49610000
C        1.04710000      -0.49250000      -0.33200000
O        1.95220000      -0.23140000       0.81610000
C        0.75610000      -0.85780000       1.39560000
C        0.67260000      -1.08800000       2.86450000
O        1.52420000      -0.78250000       3.65790000
C        0.80940000      -1.91910000       0.23610000
C       -0.34690000      -2.81960000      -0.16290000
H        0.80910000       1.91950000       1.08110000
H       -0.53540000       2.11750000      -0.06420000
H       -0.87320000       1.76330000       1.63140000
H       -1.12390000      -0.32740000       0.24380000
H        1.40470000      -0.19170000      -1.31770000
H       -0.27690000      -1.58120000       3.17850000
H        1.75120000      -2.47070000       0.29120000
H       -1.31010000      -2.30640000      -0.21310000
H       -0.15330000      -3.25660000      -1.14850000
H       -0.44650000      -3.64940000       0.54450000
