25
Properties=species:S:1:pos:R:3 gdb_123050=T pbc="F F F"
C       -0.06190000       1.52220000      -0.01320000
C       -0.02170000       0.00600000       0.08040000
O       -1.33730000      -0.48930000      -0.04520000
C       -1.41610000      -1.89590000       0.03480000
C       -2.87410000      -2.31580000      -0.10560000
C       -3.06970000      -3.82270000      -0.01480000
C       -2.86910000      -4.54370000       1.35220000
C       -4.08770000      -5.44360000       1.01350000
C       -4.51550000      -4.39410000      -0.04760000
H        0.94560000       1.93830000       0.08100000
H       -0.47930000       1.83610000      -0.97430000
H       -0.68610000       1.93880000       0.78250000
H        0.62160000      -0.41320000      -0.71280000
H        0.41480000      -0.31000000       1.04390000
H       -0.80620000      -2.36050000      -0.76060000
H       -1.00500000      -2.24810000       0.99720000
H       -3.45930000      -1.81690000       0.67740000
H       -3.25380000      -1.94420000      -1.06570000
H       -2.46380000      -4.32250000      -0.78140000
H       -1.90930000      -5.03070000       1.54260000
H       -3.08730000      -3.86950000       2.18780000
H       -3.77910000      -6.38530000       0.55010000
H       -4.79170000      -5.66970000       1.81770000
H       -5.23190000      -3.67510000       0.36400000
H       -4.90010000      -4.75580000      -1.00460000
