20
Properties=species:S:1:pos:R:3 gdb_70622=T pbc="F F F"
C       -0.51620000       1.31170000       0.18270000
C        0.00760000      -0.08850000       0.01250000
O       -0.28000000      -1.00680000       1.08980000
C        1.09150000      -0.67930000       0.81560000
C        1.81710000      -1.74210000       0.01470000
C        0.83300000      -2.07090000      -1.13620000
C       -0.00210000      -0.80300000      -1.32100000
C       -1.11580000      -0.69320000      -2.28910000
N        0.18080000      -0.04650000      -2.57510000
H        0.04770000       2.03300000      -0.41830000
H       -1.57180000       1.37870000      -0.10300000
H       -0.43590000       1.60860000       1.23080000
H        1.60090000      -0.12320000       1.59980000
H        2.75400000      -1.31980000      -0.36800000
H        2.07160000      -2.62020000       0.61560000
H        1.33790000      -2.34150000      -2.06520000
H        0.18240000      -2.89870000      -0.84350000
H       -1.35510000      -1.53850000      -2.92900000
H       -1.96760000      -0.06690000      -2.03610000
H        0.10680000       0.95390000      -2.40580000
