17
Properties=species:S:1:pos:R:3 gdb_84460=T pbc="F F F"
C       -0.26320000       1.53830000       0.04340000
C        0.05340000       0.04230000      -0.00220000
C        0.73740000      -0.44830000      -1.26340000
C        1.82200000      -1.16530000      -0.97990000
C        2.03630000      -1.18580000       0.50270000
C        2.29530000       0.16060000       1.11450000
N        0.94140000      -0.38680000       1.11650000
C        2.46920000      -2.39990000       1.15030000
N        2.84850000      -3.37400000       1.64390000
H        0.63150000       2.14900000      -0.10680000
H       -0.98050000       1.79350000      -0.74230000
H       -0.70530000       1.80150000       1.00800000
H       -0.89210000      -0.50150000       0.13360000
H        0.37100000      -0.22130000      -2.25780000
H        2.48600000      -1.66210000      -1.67450000
H        2.74660000       0.22550000       2.10010000
H        2.56700000       0.94820000       0.41700000
