21
Properties=species:S:1:pos:R:3 gdb_61522=T pbc="F F F"
C        0.72610000      -2.19160000       0.89550000
C        0.71100000      -2.19270000      -0.63530000
O        0.19080000      -0.92470000      -1.02420000
C       -0.03530000      -0.70790000      -2.39860000
C       -0.99980000      -1.66570000      -3.06310000
C       -0.07840000       0.75100000      -2.74310000
C        1.09460000      -0.09820000      -3.19120000
C        2.04650000      -2.47400000      -1.18130000
C        3.14480000      -2.73650000      -1.59400000
H        1.38940000      -1.40440000       1.26180000
H       -0.28390000      -2.00400000       1.26800000
H        1.07790000      -3.15450000       1.27360000
H        0.03380000      -2.99000000      -0.97670000
H       -1.93960000      -1.71900000      -2.50270000
H       -1.22650000      -1.32620000      -4.07730000
H       -0.58710000      -2.67690000      -3.14440000
H       -0.79950000       1.08370000      -3.48150000
H        0.09380000       1.44370000      -1.92750000
H        2.03490000       0.04180000      -2.67410000
H        1.18460000      -0.35220000      -4.24210000
H        4.11170000      -2.96290000      -1.97080000
