13
Properties=species:S:1:pos:R:3 gdb_24836=T pbc="F F F"
N       -0.23290000       1.41870000       0.15840000
C       -0.05200000       0.17490000       0.00010000
N        1.19520000      -0.44480000      -0.16950000
C        1.42280000      -1.36060000      -1.02340000
N        0.56730000      -1.91060000      -1.96570000
C       -0.80620000      -1.75780000      -2.05460000
N       -1.61480000      -1.30420000      -1.18590000
C       -1.22670000      -0.79620000       0.06230000
O       -1.78240000      -1.09180000       1.08660000
H        0.66470000       1.90850000       0.10520000
H        2.42680000      -1.77990000      -1.08400000
H        0.99880000      -2.48410000      -2.67650000
H       -1.20030000      -2.11790000      -3.00530000
