21
Properties=species:S:1:pos:R:3 gdb_112880=T pbc="F F F"
C        0.21980000       1.56850000      -0.02230000
C        0.35230000       0.04720000       0.06120000
C        0.65130000      -0.59200000      -1.30010000
O        1.87370000      -0.14970000      -1.87410000
C        2.85900000      -1.20400000      -1.90630000
C        3.84760000      -1.06680000      -0.74930000
C        2.06300000      -2.51480000      -1.88130000
C        0.74810000      -2.11740000      -1.21770000
O       -0.06610000      -2.84570000      -0.71430000
H        1.13410000       2.01230000      -0.42600000
H       -0.61000000       1.85650000      -0.67740000
H        0.03360000       2.00220000       0.96470000
H        1.14720000      -0.22290000       0.76670000
H       -0.57080000      -0.40880000       0.43680000
H       -0.16420000      -0.33560000      -1.99460000
H        3.39650000      -1.07750000      -2.85140000
H        3.36440000      -1.25590000       0.21540000
H        4.67040000      -1.78110000      -0.86120000
H        4.26550000      -0.05680000      -0.73150000
H        1.83170000      -2.86420000      -2.89450000
H        2.54520000      -3.33490000      -1.34600000
