21
Properties=species:S:1:pos:R:3 gdb_88008=T pbc="F F F"
C       -0.02400000       1.44030000      -0.19040000
C        0.00630000      -0.04790000       0.03860000
O        1.29990000      -0.68500000      -0.00150000
C        0.59710000      -0.66610000       1.23030000
C        1.10380000      -0.01570000       2.52500000
C        0.41940000      -1.17390000       3.32210000
C        0.18330000      -1.90870000       1.99180000
C       -0.82860000      -2.95290000       1.62680000
C        0.64190000      -3.29620000       1.64110000
H        0.75520000       1.94240000       0.38870000
H        0.13550000       1.67030000      -1.24910000
H       -0.99690000       1.85270000       0.09920000
H       -0.76810000      -0.61240000      -0.48510000
H        2.19450000      -0.04020000       2.58900000
H        0.75890000       0.99910000       2.73700000
H        1.04900000      -1.68850000       4.05170000
H       -0.50580000      -0.86100000       3.81420000
H       -1.45570000      -3.34710000       2.42030000
H       -1.32610000      -2.87350000       0.66510000
H        1.14570000      -3.41800000       0.68800000
H        1.01510000      -3.92750000       2.44110000
