21
Properties=species:S:1:pos:R:3 gdb_87824=T pbc="F F F"
C       -0.15260000       1.47610000      -0.00510000
C        0.04840000      -0.02270000       0.02230000
C        1.42610000      -0.62160000      -0.17550000
C        0.75500000      -0.68500000       1.16740000
C        1.28580000      -0.07600000       2.49160000
C        0.82940000      -1.37300000       3.18230000
O       -0.57740000      -1.51240000       2.94220000
C        0.33970000      -1.94770000       1.91560000
C        0.21970000      -3.34710000       1.40920000
H        0.70150000       1.99850000       0.43830000
H       -0.26750000       1.84180000      -1.03160000
H       -1.04700000       1.76640000       0.55680000
H       -0.77300000      -0.59250000      -0.40730000
H        1.51690000      -1.53530000      -0.75520000
H        2.26470000       0.05970000      -0.28910000
H        2.37130000       0.05760000       2.49460000
H        0.79970000       0.83320000       2.85500000
H        1.23270000      -1.85040000       4.06870000
H       -0.62500000      -3.44260000       0.71700000
H        1.12750000      -3.64930000       0.87760000
H        0.05270000      -4.03660000       2.24070000
