14
Properties=species:S:1:pos:R:3 gdb_42723=T pbc="F F F"
N       -0.11470000      -1.23350000      -0.13490000
C       -0.05630000      -0.08210000      -0.05670000
C       -0.01900000       1.37270000       0.00640000
C       -0.09780000       2.05770000       1.41620000
C        1.15300000       1.52570000       2.09320000
C        2.09310000       1.54350000       1.12990000
C        1.37580000       2.08530000      -0.09380000
C        0.62860000       3.26320000       0.67280000
O        0.62090000       4.44440000       0.68680000
H       -0.74590000       1.79520000      -0.69530000
H       -1.02960000       2.15140000       1.96630000
H        1.25160000       1.31110000       3.14680000
H        3.15250000       1.34690000       1.19900000
H        1.90090000       2.20630000      -1.03690000
