20
Properties=species:S:1:pos:R:3 gdb_59851=T pbc="F F F"
C       -0.03550000       1.32000000      -0.30710000
C        0.04950000      -0.13100000       0.18240000
C        0.68970000      -0.23120000       1.57210000
N       -1.26890000      -0.75080000       0.18190000
C       -1.61120000      -1.79420000      -0.59310000
O       -0.88120000      -2.37420000      -1.38830000
C       -3.06620000      -2.23450000      -0.40790000
N       -3.33630000      -3.34040000      -1.14670000
N       -3.81640000      -1.56490000       0.38620000
H        0.96030000       1.77280000      -0.34130000
H       -0.47150000       1.36840000      -1.30850000
H       -0.65530000       1.92480000       0.36500000
H        0.63900000      -0.71630000      -0.52910000
H        0.09750000       0.31360000       2.31680000
H        0.76430000      -1.27370000       1.89270000
H        1.69500000       0.20120000       1.56380000
H       -2.01500000      -0.39340000       0.76730000
H       -2.61290000      -3.62520000      -1.79090000
H       -4.27910000      -3.66030000      -1.28000000
H       -4.76390000      -1.94070000       0.43760000
