25
Properties=species:S:1:pos:R:3 gdb_59642=T pbc="F F F"
C        0.04780000       1.50920000      -0.11110000
C        0.01160000      -0.01980000       0.02510000
C        0.76110000      -0.45330000       1.29380000
C       -1.42820000      -0.56520000       0.00470000
C       -2.26180000      -0.15910000      -1.23230000
C       -3.35750000      -1.23050000      -1.29500000
C       -2.58690000      -2.52970000      -1.00730000
O       -1.87610000      -2.97760000      -2.16390000
C       -1.52500000      -2.12180000       0.03520000
H        1.07860000       1.87860000      -0.08830000
H       -0.40570000       1.84800000      -1.04670000
H       -0.49210000       1.98810000       0.71530000
H        0.53330000      -0.45050000      -0.84270000
H        0.27460000      -0.04890000       2.19020000
H        0.79760000      -1.54160000       1.39770000
H        1.79260000      -0.08540000       1.28490000
H       -1.94100000      -0.17190000       0.89500000
H       -2.65730000       0.85780000      -1.16910000
H       -1.64270000      -0.22390000      -2.13490000
H       -4.10170000      -1.06260000      -0.50560000
H       -3.89550000      -1.26570000      -2.24900000
H       -3.24280000      -3.33120000      -0.63920000
H       -2.52310000      -3.16120000      -2.85290000
H       -0.57860000      -2.59370000      -0.24340000
H       -1.78980000      -2.48830000       1.03050000
