23
Properties=species:S:1:pos:R:3 gdb_107465=T pbc="F F F"
C        0.09290000       1.51450000       0.33820000
C        0.01100000       0.04950000      -0.11320000
C       -1.38490000      -0.51420000      -0.08200000
C       -2.02690000      -1.05380000       1.17060000
C       -1.85840000      -1.96850000      -0.00980000
C       -2.96410000      -1.69510000      -1.03320000
C       -2.46990000      -0.20620000      -1.14070000
C       -3.47970000       0.90370000      -0.87200000
O       -1.79110000       0.03160000      -2.36900000
H        1.12860000       1.86910000       0.33410000
H       -0.48110000       2.16320000      -0.33100000
H       -0.30370000       1.64090000       1.35130000
H        0.40640000      -0.04100000      -1.13020000
H        0.65050000      -0.56840000       0.53040000
H       -1.33620000      -1.21640000       1.99270000
H       -3.01940000      -0.74400000       1.49020000
H       -1.26070000      -2.87070000       0.04510000
H       -2.81080000      -2.20620000      -1.98600000
H       -3.99200000      -1.86150000      -0.69040000
H       -3.97910000       0.77720000       0.09220000
H       -2.98900000       1.88140000      -0.88380000
H       -4.26020000       0.90500000      -1.64430000
H       -2.45720000       0.12760000      -3.05820000
