25
Properties=species:S:1:pos:R:3 gdb_96327=T pbc="F F F"
C        0.08230000       1.56960000       0.13050000
C        0.01170000       0.04870000       0.01590000
C        0.61410000      -0.44960000      -1.30920000
C        0.18450000      -1.85740000      -1.77810000
C       -0.17220000      -2.87320000      -0.67600000
C        0.74290000      -2.87760000       0.55820000
C        0.42870000      -1.77040000       1.57940000
C        1.20610000      -1.95710000       2.87930000
O        0.74130000      -0.46170000       1.12930000
H        1.11900000       1.90950000       0.03640000
H       -0.51090000       2.04760000      -0.65480000
H       -0.29490000       1.89450000       1.10360000
H       -1.04290000      -0.26420000       0.09700000
H        0.38030000       0.26870000      -2.10360000
H        1.70120000      -0.41050000      -1.17320000
H       -0.68240000      -1.76970000      -2.44410000
H        0.98980000      -2.27000000      -2.39800000
H       -1.20200000      -2.70090000      -0.33590000
H       -0.17820000      -3.87190000      -1.12780000
H        0.62760000      -3.83690000       1.07790000
H        1.79870000      -2.80650000       0.26570000
H       -0.65380000      -1.82020000       1.80080000
H        2.28350000      -1.93350000       2.68610000
H        0.96950000      -1.15200000       3.57970000
H        0.95840000      -2.91410000       3.34760000
