22
Properties=species:S:1:pos:R:3 gdb_63663=T pbc="F F F"
C        0.00300000       1.53370000      -0.16880000
C       -0.00870000       0.02500000      -0.00220000
C       -1.21000000      -0.64520000      -0.64490000
C        1.30860000      -0.71810000      -0.03810000
C        0.53310000      -0.61610000       1.26010000
C        1.07320000       0.16220000       2.44030000
C        2.07130000      -0.68660000       3.25970000
C        2.61420000       0.03440000       4.40840000
N        3.03230000       0.62290000       5.31090000
H        0.90210000       1.99620000       0.24570000
H       -0.03740000       1.79740000      -1.23190000
H       -0.86560000       1.99450000       0.31650000
H       -1.24340000      -0.44070000      -1.72150000
H       -1.18300000      -1.73140000      -0.51310000
H       -2.14720000      -0.27860000      -0.20940000
H        1.35670000      -1.67650000      -0.54470000
H        2.21520000      -0.12590000      -0.12640000
H        0.01140000      -1.52520000       1.55560000
H        1.57970000       1.07390000       2.11180000
H        0.25540000       0.47970000       3.09770000
H        1.58450000      -1.60010000       3.62100000
H        2.90150000      -1.00660000       2.62010000
