17
Properties=species:S:1:pos:R:3 gdb_11883=T pbc="F F F"
O        0.01270000      -0.01130000      -0.09950000
C       -0.04240000       1.19700000      -0.04370000
C       -1.20780000       2.05940000       0.45840000
C       -0.85810000       3.48690000       0.00070000
C        0.66310000       3.45370000      -0.16290000
C        1.44380000       4.54200000      -0.83010000
C        1.59410000       4.30610000       0.66410000
N        0.95220000       2.06690000      -0.40980000
H       -2.15610000       1.68270000       0.07230000
H       -1.23990000       1.97080000       1.55020000
H       -1.32460000       3.69560000      -0.96810000
H       -1.17810000       4.26220000       0.69990000
H        2.27220000       4.26020000      -1.47250000
H        0.90740000       5.42480000      -1.16340000
H        1.16250000       5.03150000       1.34620000
H        2.51940000       3.85880000       1.01220000
H        1.86040000       1.72280000      -0.67910000
