15
Properties=species:S:1:pos:R:3 gdb_130364=T pbc="F F F"
N       -0.17360000       1.43060000      -0.09250000
C       -0.09260000       0.07130000       0.06330000
N       -1.10490000      -0.69230000      -0.07970000
C       -0.98480000      -2.07590000      -0.03820000
C        0.06410000      -2.98160000      -0.11890000
N       -0.49470000      -4.21150000      -0.02030000
N       -1.84800000      -4.19170000       0.10890000
C       -2.13440000      -2.90310000       0.09400000
O       -3.39920000      -2.45360000       0.20100000
H        0.50730000       1.99620000       0.38810000
H       -1.10890000       1.81100000      -0.11840000
H        0.92250000      -0.28800000       0.27100000
H        1.12590000      -2.85190000      -0.25560000
H       -0.03260000      -5.10150000      -0.06840000
H       -3.33280000      -1.49030000       0.13020000
