19
Properties=species:S:1:pos:R:3 gdb_89351=T pbc="F F F"
C       -0.08690000       1.56770000      -0.21270000
C        0.10000000       0.08040000       0.00020000
O        1.18870000      -0.48930000      -0.79050000
C        1.74460000      -1.12890000       0.35300000
C        2.18840000      -2.54820000       0.22930000
C        2.18850000      -0.14070000       1.35980000
C        0.69890000      -0.45770000       1.30010000
C       -0.00880000      -1.10970000       2.40040000
O        0.52880000      -1.61550000       3.36260000
H        0.80340000       2.13140000       0.07710000
H       -0.29560000       1.77340000      -1.26710000
H       -0.93540000       1.92710000       0.37920000
H       -0.82460000      -0.46050000      -0.24500000
H        3.11970000      -2.60460000      -0.34570000
H        2.37120000      -2.97040000       1.22100000
H        1.43330000      -3.15100000      -0.28260000
H        2.65550000      -0.55050000       2.24930000
H        2.53960000       0.83660000       1.04350000
H       -1.11620000      -1.14480000       2.28080000
