19
Properties=species:S:1:pos:R:3 gdb_40446=T pbc="F F F"
C        0.52270000       1.40270000       0.07990000
O        0.98220000       0.15860000      -0.45550000
C       -0.32830000       0.20340000       0.11050000
C       -0.55620000      -0.59160000       1.35240000
C        0.59270000      -1.03730000       2.21750000
C       -0.21000000      -2.06390000       1.45710000
C       -1.36330000      -2.70290000       2.20480000
O       -2.03460000      -1.62920000       2.86240000
C       -1.89630000      -0.46010000       2.06410000
H        1.01770000       1.72380000       0.99480000
H        0.33540000       2.18450000      -0.65450000
H       -1.12950000       0.13890000      -0.62950000
H        1.58560000      -0.82780000       1.83670000
H        0.47780000      -0.98420000       3.29570000
H        0.24840000      -2.59100000       0.62890000
H       -2.03360000      -3.22100000       1.49950000
H       -1.06240000      -3.41550000       2.98010000
H       -1.96580000       0.40160000       2.73660000
H       -2.70820000      -0.38260000       1.31990000
