20
Properties=species:S:1:pos:R:3 gdb_32787=T pbc="F F F"
C        0.20020000       1.66280000      -0.14420000
C        0.13860000       0.13410000      -0.13940000
C        0.52880000      -0.47340000       1.22030000
C        0.54150000      -1.96810000       1.21170000
C       -0.24010000      -2.85850000       1.87860000
C       -1.36020000      -2.76290000       2.84800000
O        0.16890000      -4.12270000       1.51660000
C        1.17980000      -3.91500000       0.64490000
N        1.45220000      -2.67520000       0.41920000
H        1.21070000       2.01860000       0.08580000
H       -0.08080000       2.06880000      -1.12090000
H       -0.47820000       2.09250000       0.60190000
H       -0.87220000      -0.20080000      -0.40360000
H        0.80770000      -0.27280000      -0.90550000
H        1.52840000      -0.11200000       1.49550000
H       -0.15670000      -0.11410000       1.99700000
H       -2.27210000      -3.22840000       2.45690000
H       -1.11710000      -3.26050000       3.79360000
H       -1.57970000      -1.71480000       3.06230000
H        1.65290000      -4.79260000       0.23240000
