18
Properties=species:S:1:pos:R:3 gdb_65120=T pbc="F F F"
C       -0.04950000       1.49170000       0.10940000
C       -0.04380000      -0.00890000      -0.05980000
C        0.71090000      -0.66290000      -1.13570000
O        1.21560000      -0.65800000       0.20210000
C       -1.21330000      -0.75090000       0.50460000
N       -1.73720000      -1.80220000       0.02340000
C       -2.80850000      -2.19760000       0.94940000
C       -2.81370000      -1.09300000       2.03860000
O       -1.72100000      -0.22740000       1.65430000
H        0.86260000       1.91440000      -0.31750000
H       -0.91420000       1.93670000      -0.39370000
H       -0.10100000       1.75830000       1.16790000
H        0.37440000      -1.62790000      -1.50430000
H        1.25700000      -0.03850000      -1.84170000
H       -3.76060000      -2.26570000       0.41340000
H       -2.59550000      -3.19030000       1.36020000
H       -3.73150000      -0.49820000       2.05520000
H       -2.61440000      -1.46610000       3.04640000
