16
Properties=species:S:1:pos:R:3 gdb_23069=T pbc="F F F"
C       -0.08140000       1.38970000       0.00240000
C        0.02040000      -0.09650000      -0.01830000
O       -1.14610000      -0.87290000      -0.32880000
C       -0.40550000      -2.03780000       0.13810000
C        0.60990000      -1.10220000       0.89950000
C        1.25470000      -0.90040000      -0.50450000
C        0.68030000      -2.19960000      -0.92560000
N        1.10540000      -3.10320000      -1.70140000
O        0.27700000      -4.24930000      -1.63990000
H        0.87070000       1.83200000       0.30940000
H       -0.33240000       1.77040000      -0.99260000
H       -0.85710000       1.71190000       0.70360000
H       -1.01670000      -2.85090000       0.51380000
H        1.05020000      -1.10050000       1.88620000
H        2.20450000      -0.44960000      -0.75400000
H        0.70710000      -4.83600000      -2.27070000
