14
Properties=species:S:1:pos:R:3 gdb_5770=T pbc="F F F"
C        0.40570000       1.54810000       0.22350000
N        1.25560000       0.42680000      -0.19240000
C       -0.17760000       0.18370000       0.09000000
C       -0.51330000      -0.65570000       1.24410000
C       -1.41340000      -1.64890000       1.45920000
N       -1.31260000      -2.09200000       2.77320000
C       -0.37620000      -1.35880000       3.27610000
O        0.16170000      -0.45890000       2.41960000
H        0.62110000       1.93200000       1.21580000
H        0.11320000       2.29760000      -0.50730000
H        1.40370000       0.45020000      -1.19820000
H       -0.83740000       0.01230000      -0.75650000
H       -2.12270000      -2.07650000       0.76850000
H        0.02800000      -1.37490000       4.27600000
