17
Properties=species:S:1:pos:R:3 gdb_68332=T pbc="F F F"
C        0.01830000       1.41230000       0.36640000
C       -0.10450000      -0.03130000       0.00580000
C        0.69960000      -0.91670000      -0.97990000
C       -0.21010000      -1.83490000      -0.13670000
O        0.16140000      -1.05370000       1.06480000
C       -1.37440000      -0.84420000      -0.38820000
O       -2.48380000      -0.74130000       0.47180000
C       -2.63570000      -1.57940000       1.52560000
O       -3.48860000      -1.40770000       2.34240000
H        1.01990000       1.62770000       0.74920000
H       -0.16110000       2.03740000      -0.51370000
H       -0.71600000       1.67290000       1.13380000
H        0.50580000      -0.82010000      -2.05110000
H        1.75840000      -1.00650000      -0.73990000
H       -0.20410000      -2.92120000      -0.06040000
H       -1.73900000      -0.74160000      -1.41280000
H       -1.93200000      -2.42390000       1.52160000
