17
Properties=species:S:1:pos:R:3 gdb_71462=T pbc="F F F"
C       -0.04920000       1.55030000       0.04530000
C       -0.08130000       0.05140000      -0.02030000
C        0.41770000      -0.73850000      -1.27150000
C       -0.48680000      -1.87050000      -0.78830000
C       -0.88880000      -3.04660000      -1.47390000
N       -1.20870000      -4.01190000      -2.02960000
C       -0.44240000      -1.78510000       0.78800000
N        0.45040000      -0.70620000       1.16210000
C       -1.34990000      -0.90020000       0.01990000
H        0.98600000       1.91070000       0.03740000
H       -0.56510000       1.98990000      -0.81380000
H       -0.52420000       1.90700000       0.96300000
H        0.04090000      -0.30490000      -2.20080000
H        1.49510000      -0.92320000      -1.35260000
H       -0.65490000      -2.65080000       1.40120000
H        1.44480000      -0.93000000       1.09060000
H       -2.41760000      -0.73950000       0.03080000
