19
Properties=species:S:1:pos:R:3 gdb_93654=T pbc="F F F"
C        0.00760000       1.56740000       0.02890000
C        0.00740000       0.03580000      -0.00590000
O       -1.31900000      -0.47840000       0.02930000
C        0.75520000      -0.54840000      -1.22240000
C        2.19240000      -0.82710000      -0.72440000
C        1.96400000      -1.37060000       0.69110000
O        3.07640000      -1.34120000       1.54190000
C        0.81240000      -0.51010000       1.19200000
O        0.60140000      -0.26580000       2.35620000
H        1.01630000       1.97510000      -0.09440000
H       -0.62450000       1.94480000      -0.77980000
H       -0.38180000       1.92460000       0.98760000
H       -1.70970000      -0.20420000       0.86830000
H        0.26180000      -1.48320000      -1.50590000
H        0.72930000       0.11680000      -2.08820000
H        2.73620000      -1.52240000      -1.36650000
H        2.77840000       0.09670000      -0.65990000
H        1.55650000      -2.39710000       0.60090000
H        2.73500000      -1.12420000       2.42130000
