21
Properties=species:S:1:pos:R:3 gdb_90093=T pbc="F F F"
C       -0.16630000       1.62940000      -0.13140000
C        0.02180000       0.11980000      -0.01540000
C        1.02960000      -0.59570000      -1.03000000
C        1.93320000      -0.85970000       0.19180000
C        2.59880000      -1.78080000       1.26910000
C        2.09840000      -0.47140000       2.04050000
C        2.67460000       0.34990000       0.87440000
O        4.05240000       0.54570000       0.70580000
C        0.79040000      -0.62830000       1.17170000
H        0.76950000       2.17970000      -0.25140000
H       -0.78690000       1.85960000      -1.00520000
H       -0.67940000       2.02560000       0.75130000
H       -0.97170000      -0.33380000      -0.07620000
H        0.58730000      -1.49110000      -1.47510000
H        1.45880000       0.02230000      -1.82460000
H        2.06310000      -2.70520000       1.49860000
H        3.67770000      -1.97580000       1.25190000
H        2.20800000      -0.28510000       3.11320000
H        2.23250000       1.33330000       0.73840000
H        4.50880000      -0.29650000       0.79440000
H        0.22640000      -1.52480000       1.44270000
