16
Properties=species:S:1:pos:R:3 gdb_84905=T pbc="F F F"
O        0.12300000       1.42070000      -0.07740000
C        0.05580000       0.00720000      -0.02360000
C        0.78340000      -0.54750000       1.17890000
C        0.12750000      -1.01410000       2.23950000
C       -1.37290000      -1.01210000       2.30900000
O       -1.96620000      -0.21450000       1.29340000
C       -1.40420000      -0.49760000       0.01930000
C       -2.24230000       0.14540000      -0.99930000
N       -2.89320000       0.61710000      -1.82750000
H       -0.29120000       1.75200000       0.72900000
H        0.52260000      -0.34210000      -0.95080000
H        1.86800000      -0.51620000       1.15290000
H        0.65490000      -1.41730000       3.10000000
H       -1.76150000      -2.04520000       2.25650000
H       -1.71840000      -0.58910000       3.25810000
H       -1.41430000      -1.58380000      -0.17140000
