12
Properties=species:S:1:pos:R:3 gdb_49127=T pbc="F F F"
N       -0.08560000       1.27820000       0.01020000
C       -0.02830000       0.01740000       0.00340000
O        1.12530000      -0.73630000      -0.00670000
C        0.78800000      -2.09750000      -0.01190000
O        1.61550000      -2.94880000      -0.02080000
C       -0.70760000      -2.16340000      -0.00420000
C       -1.51700000      -3.40000000      -0.00620000
O       -1.06570000      -4.51590000      -0.01440000
C       -1.17110000      -0.90330000       0.00480000
H        0.84990000       1.69010000       0.00730000
H       -2.61240000      -3.20950000       0.00060000
H       -2.19580000      -0.55830000       0.01210000
