21
Properties=species:S:1:pos:R:3 gdb_95260=T pbc="F F F"
C       -0.06530000       1.52870000      -0.05010000
C        0.02140000       0.00810000      -0.00480000
O        0.52950000      -0.40880000      -1.26850000
C        0.90300000      -1.77580000      -1.33710000
C        1.96420000      -2.10200000      -0.29150000
C        3.01340000      -0.95720000      -0.08400000
C        2.34800000      -0.62230000       1.25610000
C        1.46180000      -1.86740000       1.15050000
C        0.84030000      -0.50510000       1.17130000
H        0.93460000       1.96550000      -0.12840000
H       -0.65280000       1.84880000      -0.91490000
H       -0.54230000       1.91340000       0.85670000
H       -0.99780000      -0.40580000       0.11510000
H        0.02400000      -2.43060000      -1.20660000
H        1.28530000      -1.92090000      -2.35310000
H        2.40240000      -3.08620000      -0.46750000
H        4.01540000      -1.36630000       0.06930000
H        3.05450000      -0.17510000      -0.84540000
H        2.87240000      -0.25050000       2.12910000
H        1.25200000      -2.63500000       1.88550000
H        0.39380000      -0.24180000       2.12820000
