19
Properties=species:S:1:pos:R:3 gdb_106450=T pbc="F F F"
C       -0.01160000       1.48870000      -0.09100000
C       -0.06030000      -0.03960000       0.01410000
C       -1.46030000      -0.56840000       0.12380000
C       -2.60030000      -0.21270000       1.11870000
C       -3.17060000      -1.09250000      -0.01060000
O       -2.41230000      -0.29330000      -0.99490000
C       -1.95770000      -2.05980000       0.13040000
C       -1.60700000      -2.91840000      -1.04850000
O       -1.21900000      -4.05760000      -0.94450000
H        1.01790000       1.83430000      -0.21770000
H       -0.59920000       1.83400000      -0.94580000
H       -0.41670000       1.96160000       0.80930000
H        0.41400000      -0.49540000      -0.86320000
H        0.50190000      -0.38620000       0.89000000
H       -2.55060000      -0.63000000       2.12710000
H       -2.92570000       0.82780000       1.09590000
H       -4.20480000      -1.33550000      -0.25230000
H       -1.85780000      -2.61260000       1.06730000
H       -1.72860000      -2.43130000      -2.03590000
