16
Properties=species:S:1:pos:R:3 gdb_28309=T pbc="F F F"
O        0.07380000       1.35420000      -0.12600000
C        0.06490000      -0.00920000      -0.03470000
C        0.02640000      -0.84360000      -1.13910000
N        0.02940000      -2.12790000      -0.65250000
C        0.00240000      -3.47830000      -1.18550000
C        0.03170000      -4.30760000       0.08440000
C        0.06970000      -3.49990000       1.16020000
C        0.06880000      -2.11930000       0.71960000
C        0.09210000      -0.80220000       1.14710000
H        0.10100000       1.71580000       0.76390000
H       -0.00170000      -0.61080000      -2.18990000
H       -0.90190000      -3.66020000      -1.78080000
H        0.86770000      -3.67550000      -1.83170000
H        0.02210000      -5.38780000       0.07450000
H        0.09690000      -3.81000000       2.19560000
H        0.12440000      -0.44880000       2.16680000
