18
Properties=species:S:1:pos:R:3 gdb_58975=T pbc="F F F"
C        0.42080000       1.66360000      -0.38950000
C       -0.02490000       0.23290000      -0.05370000
N        0.13230000      -0.72990000      -1.16060000
H        1.10300000      -0.73030000      -1.46650000
H        0.61970000      -2.50560000       1.00960000
H       -0.41630000      -0.42120000      -1.95880000
C        0.66550000      -0.32600000       1.15610000
C        0.40540000      -1.69880000       1.71710000
C        1.35490000      -1.76760000       2.90870000
O        1.54510000      -2.64020000       3.69850000
O        2.04170000      -0.56380000       2.96870000
C        1.60090000       0.23230000       1.92360000
H        2.07580000       1.20060000       1.87930000
H        1.49210000       1.69480000      -0.61810000
H       -0.12030000       2.03010000      -1.26710000
H        0.22620000       2.35410000       0.43800000
H       -1.10390000       0.25620000       0.16190000
H       -0.62530000      -1.85070000       2.05900000
