15
Properties=species:S:1:pos:R:3 gdb_53887=T pbc="F F F"
N       -0.05310000       1.30650000       0.00720000
C        0.06440000      -0.03790000       0.00080000
O        1.09910000      -0.67510000      -0.01100000
C       -1.30530000      -0.74630000       0.01060000
O       -2.34000000      -0.11570000       0.02300000
C       -1.25400000      -2.25250000       0.00420000
N       -2.58970000      -2.78810000       0.01480000
C       -2.83240000      -4.12330000       0.00610000
O       -1.97130000      -4.97680000      -0.00930000
H        0.77170000       1.88250000       0.00220000
H       -0.97120000       1.72030000       0.01740000
H       -0.67840000      -2.58320000      -0.87080000
H       -0.66150000      -2.58980000       0.86520000
H       -3.34680000      -2.12030000       0.02550000
H       -3.91700000      -4.34800000       0.01500000
