21
Properties=species:S:1:pos:R:3 gdb_109798=T pbc="F F F"
C        0.71460000       0.94390000       0.60950000
O       -0.13600000       0.05860000      -0.10510000
C        0.43700000      -0.37720000      -1.30370000
C        1.22770000      -1.65690000      -1.21770000
O        1.43200000      -2.22930000       0.03710000
C       -0.15270000      -1.65250000      -1.87160000
C       -1.36010000      -2.27530000      -1.22610000
C       -1.97970000      -3.51010000      -1.83540000
C       -1.28170000      -3.60880000      -0.50730000
H        1.66850000       0.46550000       0.86520000
H        0.91940000       1.85260000       0.02510000
H        0.18830000       1.22290000       1.52520000
H        0.73530000       0.42620000      -1.97810000
H        2.09760000      -1.80140000      -1.84920000
H        0.70250000      -1.93350000       0.59670000
H       -0.13760000      -1.69590000      -2.95820000
H       -2.05890000      -1.56080000      -0.80270000
H       -3.06160000      -3.57980000      -1.86360000
H       -1.48390000      -3.94600000      -2.69710000
H       -0.31720000      -4.09950000      -0.47440000
H       -1.88610000      -3.74360000       0.38360000
