18
Properties=species:S:1:pos:R:3 gdb_35065=T pbc="F F F"
N       -0.42430000      -1.09480000      -0.14640000
C       -0.25540000       0.04880000      -0.08410000
C       -0.06630000       1.46470000      -0.02230000
C        0.50010000       2.11050000       1.27390000
N        0.92610000       1.24580000       2.32600000
C        2.36570000       1.01640000       2.40150000
C        2.81920000       0.42860000       1.06160000
N        2.54040000       1.32400000      -0.07500000
C        1.32920000       2.09320000       0.02260000
H       -0.81470000       2.03360000      -0.56500000
H        0.02050000       3.04380000       1.56260000
H        0.49960000       1.46710000       3.21200000
H        2.94700000       1.93160000       2.61930000
H        2.55720000       0.29990000       3.20640000
H        3.89360000       0.22530000       1.06940000
H        2.29910000      -0.52080000       0.90340000
H        3.30940000       1.97380000      -0.18420000
H        1.39160000       3.02000000      -0.53740000
