12
Properties=species:S:1:pos:R:3 gdb_128733=T pbc="F F F"
C       -0.03740000       1.33900000       0.05200000
O        0.01210000      -0.09720000      -0.01520000
C        0.61620000      -0.60680000      -1.07120000
N        1.16680000       0.06360000      -2.04880000
O        1.66090000      -0.90140000      -2.90520000
N        1.41660000      -2.15180000      -2.45960000
C        0.77160000      -2.01050000      -1.32690000
C        0.33020000      -3.10210000      -0.53660000
N       -0.04510000      -3.96530000       0.13440000
H        0.97480000       1.75180000       0.07220000
H       -0.57640000       1.73970000      -0.81080000
H       -0.56520000       1.56900000       0.97620000
