17
Properties=species:S:1:pos:R:3 gdb_53943=T pbc="F F F"
C       -0.00200000       1.84870000       0.04070000
C       -0.33950000       0.44050000       0.39660000
N        0.54240000      -0.24570000       1.36160000
H        0.72700000       0.28400000       2.22230000
H       -0.05910000      -1.10130000       1.56320000
H        1.44450000      -0.52390000       0.96080000
C       -1.58880000      -0.16490000       0.24090000
N       -1.62170000      -1.51520000       0.92850000
O       -2.57670000       0.24250000      -0.36030000
C        1.04760000      -1.16320000      -1.78280000
O        1.96090000      -1.13380000      -1.05150000
O        0.19780000      -1.24710000      -2.56720000
H        0.94940000       1.95460000      -0.50140000
H       -0.79970000       2.22730000      -0.60230000
H        0.05920000       2.51930000       0.91670000
H       -2.50740000      -1.54920000       1.42980000
H       -1.71490000      -2.22140000       0.20060000
