21
Properties=species:S:1:pos:R:3 gdb_110096=T pbc="F F F"
C        1.26800000       1.31530000      -0.39220000
C        0.77840000      -0.07940000      -0.07360000
O       -0.03790000      -0.62110000      -1.08700000
C        1.62310000      -1.06990000       0.69700000
C        2.99740000      -0.74050000       1.23420000
O        3.98170000      -0.67750000       0.20410000
C        0.33720000      -0.50950000       1.30110000
C        0.34290000       0.38970000       2.51740000
O        0.83060000      -0.26120000       3.68640000
H        1.86590000       1.74920000       0.41120000
H        1.90420000       1.29430000      -1.28460000
H        0.41900000       1.97670000      -0.59070000
H        0.50050000      -0.69600000      -1.88340000
H        1.52580000      -2.09250000       0.33510000
H        3.01820000       0.24040000       1.71340000
H        3.27870000      -1.46980000       2.00810000
H        4.03480000      -1.54930000      -0.20020000
H       -0.49850000      -1.20530000       1.27330000
H        0.99730000       1.25370000       2.37900000
H       -0.67180000       0.78490000       2.68090000
H        0.29770000      -1.05090000       3.82460000
