18
Properties=species:S:1:pos:R:3 gdb_8212=T pbc="F F F"
C       -0.14670000       1.51280000       0.02050000
C        0.14420000       0.03920000      -0.00100000
C        0.46610000      -0.66030000      -1.31000000
O        0.95560000      -1.94820000      -0.96250000
C        1.47590000      -1.91560000       0.35930000
C        0.78550000      -0.75810000       1.05920000
C        1.28560000      -0.26770000       2.38810000
O       -0.63880000      -0.80840000       0.85920000
H        0.67100000       2.07830000      -0.43850000
H       -1.06180000       1.73090000      -0.54090000
H       -0.28960000       1.87010000       1.04250000
H       -0.41210000      -0.79630000      -1.95080000
H        1.21760000      -0.07570000      -1.86720000
H        1.26780000      -2.88460000       0.82630000
H        2.56700000      -1.75330000       0.36360000
H        2.34740000      -0.00570000       2.33260000
H        0.72500000       0.60890000       2.71970000
H        1.17160000      -1.04550000       3.15110000
