16
Properties=species:S:1:pos:R:3 gdb_29030=T pbc="F F F"
C       -0.21130000       1.52750000       0.00790000
C       -0.14580000       0.02620000      -0.00880000
C       -0.05570000      -0.61620000      -1.21270000
N        0.01990000      -1.92850000      -1.58920000
C        0.02300000      -2.95250000      -0.79730000
C       -0.04730000      -3.03210000       0.63440000
C       -0.13710000      -2.02860000       1.53720000
C       -0.18940000      -0.57500000       1.34140000
O       -0.27130000       0.15010000       2.32890000
H        0.61370000       1.93560000       0.60160000
H       -0.17760000       1.94690000      -0.99940000
H       -1.12460000       1.86070000       0.51230000
H       -0.03880000       0.04030000      -2.08230000
H        0.09030000      -3.91750000      -1.30400000
H       -0.02390000      -4.04630000       1.02740000
H       -0.18030000      -2.28930000       2.59180000
