17
Properties=species:S:1:pos:R:3 gdb_3193=T pbc="F F F"
C       -0.02500000       1.55640000       0.01310000
C        1.48610000       1.94640000       0.00140000
C        2.20390000       0.55260000      -0.01170000
C        1.23980000      -0.24940000      -0.91630000
C        0.02110000      -0.01070000       0.00500000
C        0.61160000      -0.42320000       1.34570000
C        1.90600000      -0.08900000       1.33580000
H       -0.55730000       1.94330000       0.88510000
H       -0.53700000       1.92860000      -0.87970000
H        1.74120000       2.51640000      -0.89740000
H        1.77730000       2.54590000       0.86690000
H        3.25300000       0.59120000      -0.30730000
H        1.12100000       0.18120000      -1.91670000
H        1.51150000      -1.30470000      -0.99770000
H       -0.91980000      -0.48560000      -0.27540000
H        0.03590000      -0.80550000       2.17980000
H        2.60660000      -0.14170000       2.16030000
