19
Properties=species:S:1:pos:R:3 gdb_83901=T pbc="F F F"
C       -0.03270000       1.62240000       0.09250000
C        0.04330000       0.11240000       0.10130000
N        1.20180000      -0.69110000      -0.30610000
C        2.50340000      -0.00290000      -0.39130000
C        2.86410000       0.60560000       0.99060000
C        1.85470000      -0.01250000       1.99010000
C        0.79480000      -0.69510000       1.12160000
C        0.20480000      -1.90510000       1.64460000
N       -0.27850000      -2.85390000       2.09600000
H        0.80450000       2.11440000       0.58750000
H       -0.08030000       1.98910000      -0.93870000
H       -0.95200000       1.94020000       0.59440000
H       -0.87780000      -0.34900000      -0.25160000
H        3.23680000      -0.75820000      -0.68760000
H        2.47250000       0.74870000      -1.18610000
H        3.89320000       0.36690000       1.27020000
H        2.79020000       1.69510000       0.97690000
H        2.32970000      -0.76590000       2.62300000
H        1.41530000       0.73540000       2.65600000
