18
Properties=species:S:1:pos:R:3 gdb_102138=T pbc="F F F"
C       -0.25390000       1.37100000      -0.07980000
O        0.12910000       0.01750000       0.06630000
C        0.68920000      -0.55000000      -1.10080000
C        1.28160000      -1.91010000      -0.67120000
C        2.36840000      -1.75890000       0.29330000
N        3.24300000      -1.64390000       1.03910000
C       -0.29020000      -0.73130000      -2.17860000
C       -1.10070000      -0.88850000      -3.05540000
C       -2.07870000      -1.07410000      -4.11710000
H        0.60530000       2.00380000      -0.34810000
H       -1.03340000       1.49030000      -0.84400000
H       -0.64420000       1.69310000       0.88750000
H        1.51050000       0.08870000      -1.46650000
H        0.48150000      -2.51090000      -0.22870000
H        1.65150000      -2.44220000      -1.55230000
H       -1.77420000      -1.87840000      -4.79530000
H       -3.06010000      -1.33750000      -3.70860000
H       -2.19690000      -0.16280000      -4.71290000
