22
Properties=species:S:1:pos:R:3 gdb_7668=T pbc="F F F"
C        0.11290000       1.52790000      -0.07090000
C        0.02590000       0.00630000      -0.00930000
C       -1.42600000      -0.45060000      -0.18520000
C        0.98300000      -0.79530000      -0.95710000
C        1.43230000      -1.69090000       0.23120000
C        2.77770000      -1.28500000       0.87840000
C        2.03530000      -0.22380000       1.74620000
C        0.66350000      -0.73240000       1.21090000
H        1.14340000       1.88670000       0.00660000
H       -0.28990000       1.89820000      -1.02120000
H       -0.46620000       1.99300000       0.73590000
H       -1.82170000      -0.13400000      -1.15730000
H       -1.51090000      -1.54140000      -0.12940000
H       -2.06850000      -0.02650000       0.59540000
H        0.48120000      -1.31280000      -1.77960000
H        1.79650000      -0.19690000      -1.38030000
H        1.21390000      -2.75580000       0.14110000
H        3.21760000      -2.08360000       1.48210000
H        3.54680000      -0.91470000       0.19300000
H        2.16490000      -0.35990000       2.82250000
H        2.27040000       0.81830000       1.51630000
H       -0.03520000      -1.08580000       1.97290000
