23
Properties=species:S:1:pos:R:3 gdb_113831=T pbc="F F F"
C       -0.13690000       1.64910000      -0.35240000
C        0.01530000       0.21350000       0.14560000
N       -1.26690000      -0.47950000       0.06790000
C       -1.55510000      -1.25450000      -1.13190000
C       -1.33150000      -1.94040000       0.17550000
C       -0.11940000      -2.79200000       0.38160000
N        0.13250000      -3.27380000       1.75570000
C       -0.18040000      -4.24920000       0.70050000
C       -1.45540000      -5.04610000       0.84560000
H        0.80890000       2.19280000      -0.26370000
H       -0.44010000       1.66620000      -1.40460000
H       -0.90050000       2.17610000       0.22630000
H        0.81270000      -0.28580000      -0.43070000
H        0.33030000       0.21130000       1.19570000
H       -2.55410000      -1.15570000      -1.54930000
H       -0.76310000      -1.34970000      -1.87650000
H       -2.20110000      -2.27450000       0.73540000
H        0.74920000      -2.48980000      -0.19950000
H        1.12750000      -3.26410000       1.96170000
H        0.65590000      -4.82950000       0.30950000
H       -2.24670000      -4.45280000       1.30760000
H       -1.80790000      -5.40110000      -0.12890000
H       -1.28480000      -5.92180000       1.48110000
