15
Properties=species:S:1:pos:R:3 gdb_24021=T pbc="F F F"
N       -0.29590000      -1.17760000      -0.29650000
C       -0.15810000      -0.03680000      -0.17410000
C        0.00720000       1.40360000      -0.01760000
C       -0.28240000       1.97610000       1.43820000
N        1.11890000       2.40990000       1.44760000
C        2.17200000       3.09470000       1.98110000
C        3.17570000       3.01940000       1.02460000
C        2.70700000       2.29250000      -0.11640000
C        1.41880000       1.93960000       0.20760000
H       -0.56510000       1.91660000      -0.79660000
H       -1.00980000       2.79170000       1.46230000
H       -0.52890000       1.22360000       2.19060000
H        2.15120000       3.55050000       2.95690000
H        4.16450000       3.43910000       1.13600000
H        3.25950000       2.07400000      -1.01560000
