19
Properties=species:S:1:pos:R:3 gdb_77452=T pbc="F F F"
C       -0.01580000       1.59440000      -0.04800000
C        0.05690000       0.08420000      -0.06520000
C        0.68800000      -0.73500000      -1.14060000
C        0.09560000      -1.79170000      -2.00690000
O        1.84800000      -0.00750000      -1.66120000
C        2.48520000      -0.11400000      -0.42590000
N        3.66700000       0.14710000      -0.09560000
C        1.31200000      -0.74600000       0.25760000
N        1.29800000      -1.73050000       1.27620000
H        0.84680000       2.03850000      -0.54910000
H       -0.91810000       1.93950000      -0.56390000
H       -0.05140000       1.97410000       0.97810000
H       -0.80890000      -0.42170000       0.36070000
H       -0.43160000      -1.35540000      -2.86240000
H        0.87230000      -2.46140000      -2.38860000
H       -0.62080000      -2.38190000      -1.42860000
H        4.20020000       0.51460000      -0.88560000
H        2.11370000      -2.33110000       1.20570000
H        1.32340000      -1.30180000       2.19640000
