18
Properties=species:S:1:pos:R:3 gdb_11116=T pbc="F F F"
C       -0.75750000       1.47330000      -0.09540000
O       -0.32870000       0.25770000       0.47710000
C       -1.06880000      -0.85000000       0.04640000
C       -0.78900000      -1.43820000      -1.36700000
C       -0.82150000      -2.86910000      -0.72410000
C       -0.62330000      -2.18300000       0.67220000
C       -2.08720000      -3.56180000      -0.87680000
C       -3.14260000      -4.12590000      -1.00030000
H       -0.13660000       2.26810000       0.32460000
H       -0.64320000       1.47710000      -1.18990000
H       -1.81260000       1.68300000       0.14080000
H       -2.14610000      -0.67440000       0.18870000
H       -1.49970000      -1.23970000      -2.17010000
H        0.22370000      -1.18400000      -1.69160000
H       -0.00300000      -3.52560000      -1.03030000
H        0.43650000      -2.13630000       0.93410000
H       -1.19610000      -2.57580000       1.51270000
H       -4.06910000      -4.63220000      -1.11180000
