18
Properties=species:S:1:pos:R:3 gdb_45806=T pbc="F F F"
O       -0.01020000       0.12370000       0.64530000
C       -0.05690000       1.22990000       0.16400000
C       -1.40890000       1.82280000      -0.25590000
C       -1.40570000       2.98630000      -1.21470000
C       -0.71500000       4.12310000      -1.09360000
C        0.24940000       4.46380000      -0.02160000
N        0.08870000       3.84780000       1.31800000
C        1.22610000       3.44750000       0.48420000
C        1.22860000       2.02900000      -0.06040000
H       -1.99530000       0.99080000      -0.65560000
H       -1.89000000       2.11450000       0.68520000
H       -2.04910000       2.88020000      -2.08410000
H       -0.81650000       4.87410000      -1.87300000
H        0.60540000       5.49080000      -0.04100000
H        0.38050000       4.50250000       2.03760000
H        2.20950000       3.81940000       0.76480000
H        2.03730000       1.44590000       0.38710000
H        1.40550000       2.06260000      -1.14500000
