17
Properties=species:S:1:pos:R:3 gdb_47875=T pbc="F F F"
O       -0.02560000      -0.00860000      -0.01130000
C       -0.06590000       1.19300000       0.03910000
C       -1.34940000       1.98730000       0.13320000
C       -1.80720000       2.38950000      -1.28810000
C       -0.64070000       2.86880000      -2.16820000
C        0.34480000       3.78780000      -1.44770000
O        1.36880000       3.14620000      -0.66170000
C        1.27010000       1.98560000       0.02190000
O        2.21650000       1.57290000       0.62990000
H       -2.10540000       1.37110000       0.62460000
H       -1.18280000       2.88410000       0.74110000
H       -2.29010000       1.53060000      -1.76320000
H       -2.56270000       3.17770000      -1.20450000
H       -0.08580000       2.01580000      -2.57750000
H       -1.03620000       3.41510000      -3.03100000
H        0.91800000       4.36670000      -2.17540000
H       -0.18440000       4.50120000      -0.80310000
