14
Properties=species:S:1:pos:R:3 gdb_2524=T pbc="F F F"
C       -0.02140000       1.54690000       0.01060000
C       -0.04640000       0.01810000       0.00260000
N       -1.40610000      -0.53700000       0.01260000
C       -2.03790000      -0.76560000      -1.21740000
O       -3.15470000      -1.16650000      -1.38630000
C       -2.01440000      -0.77890000       1.25180000
O       -3.12770000      -1.18180000       1.43770000
H        1.01060000       1.91060000       0.00270000
H       -0.53440000       1.95090000      -0.86740000
H       -0.51760000       1.94140000       0.90250000
H        0.46980000      -0.36960000      -0.88050000
H        0.48650000      -0.37910000       0.87150000
H       -1.34730000      -0.52810000      -2.05230000
H       -1.30790000      -0.55040000       2.07600000
