20
Properties=species:S:1:pos:R:3 gdb_55443=T pbc="F F F"
C       -0.05780000       1.52540000       0.05630000
C       -0.04040000       0.00480000       0.05840000
O       -0.09960000      -0.62640000       1.09870000
N        0.04690000      -0.63500000      -1.16590000
C        0.06740000      -2.10340000      -1.18670000
C        0.99650000      -2.61720000      -2.28820000
C        0.57270000      -2.07610000      -3.66100000
C        0.26890000      -0.60610000      -3.56790000
C        0.06720000       0.01870000      -2.40280000
H        0.81990000       1.94680000      -0.44270000
H       -0.94840000       1.91730000      -0.44580000
H       -0.07060000       1.84760000       1.09670000
H        0.37710000      -2.43480000      -0.19660000
H       -0.95450000      -2.47000000      -1.35520000
H        2.02070000      -2.29540000      -2.06740000
H        0.99220000      -3.71140000      -2.27860000
H        1.36580000      -2.25180000      -4.39800000
H       -0.30400000      -2.62590000      -4.03360000
H        0.22710000      -0.01840000      -4.47810000
H       -0.11510000       1.08360000      -2.36550000
