21
Properties=species:S:1:pos:R:3 gdb_79573=T pbc="F F F"
C       -0.06340000       1.53330000      -0.09130000
C        0.11650000       0.03140000      -0.02320000
C        1.42430000      -0.69700000      -0.26720000
C        2.59760000       0.00290000       0.37550000
C        3.17340000      -0.86320000       1.46650000
C        1.91880000      -0.07280000       1.75720000
C        1.83930000       0.93950000       2.86860000
C        0.73920000      -0.76450000       1.10330000
O        0.11120000      -1.88580000       1.63430000
H        0.81700000       2.06540000       0.27560000
H       -0.23510000       1.85220000      -1.12570000
H       -0.92580000       1.86070000       0.50090000
H       -0.71970000      -0.52620000      -0.44500000
H        1.50100000      -1.49990000      -0.99210000
H        3.13870000       0.84960000      -0.03210000
H        3.13390000      -1.94540000       1.37830000
H        4.07490000      -0.48550000       1.94160000
H        2.79610000       1.45340000       3.00820000
H        1.07560000       1.70030000       2.67610000
H        1.59060000       0.45360000       3.82010000
H       -0.66530000      -1.59410000       2.12340000
