18
Properties=species:S:1:pos:R:3 gdb_8526=T pbc="F F F"
C       -0.15340000       1.58010000      -0.04400000
C       -0.03440000       0.06380000      -0.02000000
O       -1.28790000      -0.54900000      -0.27380000
C        1.19510000      -0.60460000      -0.68500000
C        2.11360000      -0.29080000       0.54820000
C        2.58000000      -1.75480000       0.66330000
C        1.09650000      -1.85440000       0.26040000
C        0.70000000      -0.61940000       1.14540000
H        0.79530000       2.06900000       0.19320000
H       -0.46330000       1.92880000      -1.03780000
H       -0.90680000       1.91340000       0.67670000
H       -1.65120000      -0.16530000      -1.07880000
H        1.50350000      -0.60960000      -1.73300000
H        2.68530000       0.62340000       0.71150000
H        3.31680000      -2.09600000      -0.07150000
H        2.84500000      -2.11020000       1.66460000
H        0.48270000      -2.73650000       0.08910000
H        0.43180000      -0.64090000       2.20330000
