18
Properties=species:S:1:pos:R:3 gdb_90647=T pbc="F F F"
C       -0.27240000       1.29270000      -0.04590000
N        0.09640000      -0.10010000       0.11600000
C        1.11960000      -0.63530000      -0.84050000
C        1.95980000      -1.15500000       0.32710000
C        0.98780000      -0.42650000       1.24530000
C        1.05520000      -1.93760000       1.28780000
O       -0.02880000      -2.67970000       0.82540000
C        1.73100000      -2.51790000       2.41670000
C        2.31710000      -2.99030000       3.35410000
H        0.59530000       1.97470000      -0.08860000
H       -0.84450000       1.40980000      -0.97160000
H       -0.91170000       1.60280000       0.78690000
H        0.72990000      -1.36710000      -1.55510000
H        1.63070000       0.17280000      -1.37630000
H        3.03730000      -1.24230000       0.35530000
H        1.11730000       0.22920000       2.09860000
H       -0.65210000      -2.01020000       0.49320000
H        2.82350000      -3.41710000       4.18400000
