17
Properties=species:S:1:pos:R:3 gdb_66906=T pbc="F F F"
C        0.14040000       1.48160000      -0.10430000
C       -0.03460000      -0.00370000       0.09130000
C       -0.75730000      -0.79070000      -1.09580000
C       -0.79380000      -2.37530000      -1.03070000
C       -0.82850000      -2.09110000       0.46200000
C        0.31580000      -2.09870000       1.18610000
C        0.88570000      -0.71440000       1.07450000
O        1.93420000      -0.28680000       1.49630000
C       -1.37520000      -0.68150000       0.25230000
H        1.10260000       1.69010000      -0.58190000
H       -0.65270000       1.91030000      -0.72340000
H        0.13930000       1.99680000       0.86120000
H       -1.00660000      -0.23230000      -1.99470000
H       -1.73310000      -2.69120000      -1.49660000
H        0.04470000      -2.96670000      -1.40660000
H        1.00200000      -2.93810000       1.24290000
H       -2.29340000      -0.23200000       0.60570000
