22
Properties=species:S:1:pos:R:3 gdb_112944=T pbc="F F F"
C        0.19550000       1.34190000       0.37420000
C        0.00830000      -0.10980000      -0.07640000
C        0.57070000      -0.37920000      -1.46670000
C        2.12710000      -0.41460000      -1.60410000
N        2.01170000      -1.78780000      -2.08500000
C        0.55740000      -1.86270000      -1.94990000
C        2.99890000      -2.67000000      -2.38770000
C        2.52070000      -4.05720000      -2.78940000
O        4.17520000      -2.35070000      -2.33860000
H        1.25520000       1.61800000       0.39880000
H       -0.31170000       2.03530000      -0.30570000
H       -0.21130000       1.50070000       1.37720000
H        0.48950000      -0.78650000       0.64250000
H       -1.05990000      -0.36360000      -0.06800000
H        0.10880000       0.29300000      -2.19510000
H        2.56890000       0.27420000      -2.33110000
H        2.68090000      -0.32730000      -0.66150000
H        0.21110000      -2.58270000      -1.19630000
H        0.02260000      -2.05470000      -2.88770000
H        1.83850000      -4.00990000      -3.64470000
H        3.38940000      -4.66040000      -3.05140000
H        1.98150000      -4.54020000      -1.96710000
