21
Properties=species:S:1:pos:R:3 gdb_116897=T pbc="F F F"
C        0.30740000       0.85730000       0.71910000
O        0.25570000      -0.41940000       0.12510000
C        0.45680000      -0.41360000      -1.28680000
C        1.94440000      -0.27990000      -1.65290000
C       -0.11400000      -1.64570000      -1.83070000
C       -0.57150000      -2.65080000      -2.31000000
C       -1.10710000      -3.88630000      -2.86590000
C       -0.25380000      -5.10970000      -2.51300000
O       -0.87390000      -6.23280000      -3.11580000
H        1.30490000       1.31740000       0.66010000
H       -0.41790000       1.54890000       0.26180000
H        0.05070000       0.72680000       1.77320000
H       -0.08990000       0.44270000      -1.71890000
H        2.06860000      -0.29450000      -2.73920000
H        2.35680000       0.65950000      -1.27420000
H        2.50740000      -1.11230000      -1.22360000
H       -2.12790000      -4.05920000      -2.50420000
H       -1.17440000      -3.81510000      -3.95850000
H        0.77060000      -4.96000000      -2.88570000
H       -0.19770000      -5.21170000      -1.41930000
H       -0.36670000      -7.01670000      -2.88700000
