21
Properties=species:S:1:pos:R:3 gdb_74429=T pbc="F F F"
C       -0.10070000       1.53670000       0.04300000
C        0.01820000       0.03950000       0.00120000
C       -0.03820000      -0.65910000      -1.13610000
C        0.02400000      -2.14450000      -1.17130000
O       -1.07870000      -2.77810000      -1.77890000
C        1.35460000      -2.86200000      -1.25140000
C        0.55960000      -2.83470000       0.04440000
C        1.01340000      -1.96240000       1.21230000
C        0.18410000      -0.67140000       1.33210000
H        0.80290000       1.99590000       0.46510000
H       -0.26810000       1.96010000      -0.95110000
H       -0.93290000       1.84350000       0.69020000
H       -0.16670000      -0.14570000      -2.08880000
H       -1.03050000      -2.60340000      -2.72550000
H        1.37390000      -3.79390000      -1.80670000
H        2.26220000      -2.26850000      -1.30320000
H        0.05180000      -3.75950000       0.29690000
H        0.95860000      -2.52950000       2.14730000
H        2.06680000      -1.68820000       1.08100000
H        0.65380000       0.00380000       2.05750000
H       -0.81230000      -0.89880000       1.73870000
