14
Properties=species:S:1:pos:R:3 gdb_2894=T pbc="F F F"
N        0.18670000      -1.16180000       0.28110000
C        0.05930000      -0.01860000       0.16980000
C       -0.10650000       1.44830000       0.03810000
C       -0.73840000       2.06190000       1.30150000
C        0.50240000       2.27590000       2.18100000
C        1.58530000       2.62560000       1.14810000
O        1.14880000       2.08570000      -0.11360000
H       -0.69610000       1.63840000      -0.86460000
H       -1.19990000       3.01590000       1.03030000
H       -1.49700000       1.42210000       1.75490000
H        0.36660000       3.06130000       2.92700000
H        0.75480000       1.34980000       2.70570000
H        1.70190000       3.70910000       1.02510000
H        2.56200000       2.20040000       1.39960000
