16
Properties=species:S:1:pos:R:3 gdb_110196=T pbc="F F F"
O       -0.10290000       1.43680000       0.08350000
C       -0.05600000       0.05210000      -0.16030000
C       -1.45210000      -0.55640000       0.00030000
C       -1.61890000      -2.09460000       0.19540000
O       -2.11480000      -1.87730000       1.54610000
C       -1.94880000      -0.51700000       1.42750000
N       -2.06790000       0.41680000       2.25660000
C       -2.61910000      -2.76050000      -0.71720000
O       -3.75420000      -3.01250000      -0.42040000
H       -0.52420000       1.56240000       0.94690000
H        0.31000000      -0.08350000      -1.18330000
H        0.64510000      -0.46640000       0.51550000
H       -2.14640000      -0.11350000      -0.71790000
H       -0.67650000      -2.65540000       0.20840000
H       -2.36310000       0.09110000       3.17780000
H       -2.20450000      -2.98180000      -1.72810000
