18
Properties=species:S:1:pos:R:3 gdb_89767=T pbc="F F F"
C       -0.73120000       1.21620000      -0.04840000
C        0.17320000      -0.00310000      -0.00790000
C        1.54540000       0.05790000      -0.74620000
C        2.17030000      -0.65190000       0.45000000
C        3.01800000      -1.84300000       0.49920000
O        3.50330000      -0.54260000       0.87260000
C        0.93210000      -0.35920000       1.33410000
C        1.11300000       0.75840000       2.24720000
N        1.24400000       1.65520000       2.96530000
H       -0.20700000       2.11210000       0.29710000
H       -1.07690000       1.39700000      -1.07150000
H       -1.61350000       1.07980000       0.58520000
H       -0.37820000      -0.89530000      -0.31790000
H        1.62090000      -0.42650000      -1.72180000
H        1.91420000       1.08560000      -0.82660000
H        2.91360000      -2.55290000       1.31860000
H        3.43320000      -2.24750000      -0.42270000
H        0.53370000      -1.21180000       1.89010000
