21
Properties=species:S:1:pos:R:3 gdb_58059=T pbc="F F F"
C        0.14130000       1.34690000      -0.18170000
N       -0.11020000      -0.07860000      -0.00100000
C        0.60360000      -0.61310000       1.15330000
C       -1.52430000      -0.44480000       0.00060000
C       -2.26880000       0.16420000       1.13990000
N       -2.79140000       0.67030000       2.03890000
C       -2.23910000      -0.12990000      -1.30400000
C       -1.94260000      -0.97520000      -2.51280000
C       -3.27860000      -1.09080000      -1.82490000
H        1.22100000       1.50670000      -0.24900000
H       -0.30500000       1.69470000      -1.11620000
H       -0.24650000       1.96720000       0.64500000
H        0.28680000      -0.16660000       2.11180000
H        0.45150000      -1.69570000       1.21370000
H        1.67450000      -0.42820000       1.02880000
H       -1.56370000      -1.53120000       0.14960000
H       -2.43830000       0.92290000      -1.47080000
H       -1.89580000      -0.48580000      -3.47880000
H       -1.23140000      -1.78470000      -2.39060000
H       -3.47920000      -1.98670000      -1.24660000
H       -4.15300000      -0.67550000      -2.31230000
