19
Properties=species:S:1:pos:R:3 gdb_103135=T pbc="F F F"
C       -0.51570000       1.37670000       0.04370000
C        0.11920000       0.00190000      -0.10290000
C        1.49170000      -0.09290000      -0.85620000
C        1.99780000      -0.97030000       0.28890000
O        2.91200000      -1.73670000       0.44210000
C        0.76630000      -0.63750000       1.17130000
O        1.05840000       0.33630000       2.15260000
C        0.14870000      -1.87120000       1.81750000
O        1.04030000      -2.34750000       2.81960000
H        0.17840000       2.07820000       0.51250000
H       -0.80360000       1.77230000      -0.93560000
H       -1.41380000       1.33290000       0.66750000
H       -0.59630000      -0.70390000      -0.53880000
H        1.51870000      -0.52940000      -1.85750000
H        2.01740000       0.86880000      -0.87790000
H        1.37970000      -0.16580000       2.91580000
H       -0.78570000      -1.60860000       2.32540000
H       -0.07040000      -2.64180000       1.06430000
H        1.85510000      -2.60300000       2.36400000
