16
Properties=species:S:1:pos:R:3 gdb_85650=T pbc="F F F"
C        0.70710000       1.20570000      -0.43260000
C       -0.00120000      -0.05210000       0.03850000
O        0.01570000      -1.09500000      -0.91810000
C        1.06850000      -1.99250000      -0.57680000
C        2.28140000      -1.78850000      -1.37000000
C        3.26950000      -1.62940000      -2.03390000
C        1.28740000      -1.72440000       0.91230000
N        1.94500000      -2.45380000       1.69690000
O        0.63020000      -0.57530000       1.21600000
H        1.75000000       0.98810000      -0.67590000
H        0.20810000       1.59050000      -1.32600000
H        0.67150000       1.96950000       0.34910000
H       -1.04890000       0.14670000       0.28940000
H        0.70160000      -3.01350000      -0.71950000
H        4.14700000      -1.49260000      -2.61670000
H        1.95160000      -2.06790000       2.64170000
