20
Properties=species:S:1:pos:R:3 gdb_122243=T pbc="F F F"
C        0.12580000       1.42490000       0.25740000
C       -0.11080000      -0.04090000      -0.11580000
C        0.83110000      -0.51300000      -1.21270000
O        0.53740000      -1.88510000      -1.48930000
C        1.32850000      -2.45790000      -2.47480000
C        2.71700000      -2.95650000      -2.10310000
C        1.59320000      -3.93380000      -2.32100000
C        1.13120000      -1.92760000      -3.81090000
N        0.96940000      -1.48430000      -4.86700000
H        1.14640000       1.58550000       0.62160000
H       -0.02750000       2.08550000      -0.60270000
H       -0.56160000       1.74240000       1.04630000
H        0.02270000      -0.68390000       0.76180000
H       -1.14200000      -0.18570000      -0.45670000
H        0.69850000       0.08750000      -2.12440000
H        1.88140000      -0.41390000      -0.89880000
H        3.50480000      -2.88960000      -2.84390000
H        3.01910000      -2.75750000      -1.08150000
H        1.13680000      -4.38420000      -1.44770000
H        1.59660000      -4.54510000      -3.21510000
