15
Properties=species:S:1:pos:R:3 gdb_18783=T pbc="F F F"
O        0.02920000       0.00850000      -0.06180000
C       -0.00220000       1.20140000       0.02430000
C       -1.11450000       2.25120000       0.04310000
C       -1.30770000       2.88930000       1.44050000
C       -0.03410000       3.71240000       1.16350000
C        1.30120000       2.96470000       1.34750000
C        1.04630000       2.31370000      -0.03400000
N       -0.07600000       3.32560000      -0.32390000
H       -1.98460000       2.09000000      -0.59560000
H       -2.19560000       3.52550000       1.45250000
H       -1.33250000       2.23030000       2.31210000
H       -0.05540000       4.77160000       1.42460000
H        2.14960000       3.65110000       1.29750000
H        1.42600000       2.31000000       2.21370000
H        1.87650000       2.20160000      -0.73330000
