17
Properties=species:S:1:pos:R:3 gdb_62536=T pbc="F F F"
C       -0.45340000       1.37930000      -0.18100000
C        0.07480000      -0.01590000       0.08820000
O       -0.93850000      -0.91210000       0.51670000
C        0.93310000      -0.72340000      -1.03110000
C        2.00050000      -1.13760000       0.04300000
C        1.30760000      -0.18280000       1.02080000
O        1.58440000       0.27940000       2.08950000
C        0.31410000      -1.76610000      -1.81800000
C       -0.18290000      -2.63310000      -2.48570000
H        0.33480000       2.04120000      -0.55290000
H       -1.25950000       1.33850000      -0.91970000
H       -0.84680000       1.81940000       0.74210000
H       -1.26820000      -0.59160000       1.36470000
H        1.34900000       0.04590000      -1.68980000
H        1.89690000      -2.18060000       0.35490000
H        3.04880000      -0.93310000      -0.18260000
H       -0.63200000      -3.40080000      -3.06550000
