16
Properties=species:S:1:pos:R:3 gdb_57749=T pbc="F F F"
C       -0.06010000       1.58170000       0.06050000
C       -0.03690000       0.04060000       0.02490000
C        0.78060000      -0.55160000       1.19370000
C       -1.38630000      -0.51140000       0.01250000
C       -2.50400000      -0.97210000       0.01490000
C       -3.82830000      -1.51370000       0.01260000
O       -4.10700000      -2.69130000      -0.01140000
C       -4.89460000      -0.49180000       0.04400000
N       -5.73460000       0.30250000       0.06870000
H        0.96220000       1.96820000       0.01680000
H       -0.62140000       1.98930000      -0.78380000
H       -0.52410000       1.93970000       0.98410000
H        0.44050000      -0.27590000      -0.91350000
H        0.34120000      -0.26820000       2.15440000
H        0.81520000      -1.64230000       1.14030000
H        1.80390000      -0.16750000       1.15670000
