18
Properties=species:S:1:pos:R:3 gdb_55071=T pbc="F F F"
N        0.02750000       1.27870000       0.12830000
C       -0.01240000       0.06820000      -0.50070000
O        0.90560000      -0.32600000      -1.20070000
C       -1.26250000      -0.72250000      -0.25660000
C       -1.66590000      -1.74270000      -1.30240000
C       -1.18410000      -2.21950000       0.03260000
C        0.13400000      -2.95550000       0.18450000
C       -0.04070000      -4.44550000      -0.03020000
O        0.69710000      -5.14100000      -0.67770000
H        0.83380000       1.86320000      -0.01800000
H       -0.73070000       1.62670000       0.68700000
H       -2.06240000      -0.19310000       0.25210000
H       -2.71740000      -1.82800000      -1.55110000
H       -0.97700000      -1.83470000      -2.13520000
H       -1.95970000      -2.56040000       0.71520000
H        0.89230000      -2.57120000      -0.49830000
H        0.50900000      -2.82560000       1.21170000
H       -0.93130000      -4.88360000       0.48280000
