11
Properties=species:S:1:pos:R:3 gdb_1033=T pbc="F F F"
O       -0.04270000      -0.03010000      -0.00140000
C        0.00120000       1.18010000       0.00750000
C        1.23570000       1.96710000      -0.00030000
C        2.51100000       1.46880000      -0.01830000
O        3.41000000       2.46920000      -0.02110000
C        2.71040000       3.64450000      -0.00410000
C        1.37890000       3.40000000       0.00920000
H       -0.93090000       1.78750000       0.02250000
H        2.90000000       0.46450000      -0.03030000
H        3.30900000       4.53980000      -0.00400000
H        0.58730000       4.13310000       0.02380000
