17
Properties=species:S:1:pos:R:3 gdb_46489=T pbc="F F F"
O        0.01540000      -0.03420000       0.23740000
C       -0.02160000       1.16590000       0.05890000
C       -1.33070000       1.94290000      -0.02180000
C       -1.24110000       3.13060000      -0.98970000
C       -0.04100000       4.00560000      -0.68600000
C        0.04660000       5.36380000      -1.24920000
O       -0.27950000       5.18390000       0.12420000
C        1.20270000       3.28220000      -0.32940000
C        1.21650000       1.97700000      -0.02720000
H       -2.13050000       1.25020000      -0.29270000
H       -1.54660000       2.30900000       0.99140000
H       -1.14350000       2.75460000      -2.01600000
H       -2.14810000       3.74010000      -0.94980000
H        1.02040000       5.81010000      -1.44940000
H       -0.76490000       5.72040000      -1.88330000
H        2.11920000       3.86670000      -0.31370000
H        2.13980000       1.45280000       0.19870000
