23
Properties=species:S:1:pos:R:3 gdb_121008=T pbc="F F F"
C       -0.05340000       1.36720000       0.07130000
O       -0.04800000      -0.03750000       0.01180000
C        0.70470000      -0.54110000      -1.07120000
C        0.61440000      -2.06520000      -1.08090000
C       -0.84710000      -2.54380000      -1.31460000
C       -0.85520000      -2.95750000      -2.76400000
C        0.36740000      -3.02080000      -3.29510000
C        0.73880000      -3.43300000      -4.68450000
C        1.42230000      -2.64530000      -2.27350000
H        0.96150000       1.77640000       0.20150000
H       -0.48590000       1.81450000      -0.83820000
H       -0.66230000       1.65810000       0.93110000
H        0.32300000      -0.13580000      -2.02570000
H        1.75840000      -0.22460000      -0.98150000
H        0.99880000      -2.42300000      -0.12170000
H       -1.10340000      -3.38970000      -0.66200000
H       -1.56670000      -1.75250000      -1.07880000
H       -1.76860000      -3.20420000      -3.29650000
H       -0.14210000      -3.68330000      -5.28200000
H        1.28800000      -2.63680000      -5.20380000
H        1.40180000      -4.30820000      -4.67480000
H        2.14860000      -1.92340000      -2.67270000
H        2.00950000      -3.52700000      -1.98040000
