17
Properties=species:S:1:pos:R:3 gdb_94123=T pbc="F F F"
O       -0.24060000       1.27540000       0.62730000
C       -0.02950000       0.03900000      -0.03720000
C        0.72710000      -0.97350000       0.83250000
O       -0.26750000      -1.51170000       1.70540000
C       -1.45510000      -1.63980000       0.98300000
C       -1.40240000      -0.63700000      -0.18370000
O       -1.56280000      -2.95800000       0.40980000
C       -1.88830000      -3.95900000       1.25520000
O       -1.91880000      -5.10280000       0.91470000
H        0.61550000       1.68550000       0.78700000
H        0.46340000       0.18880000      -1.00700000
H        1.17600000      -1.76460000       0.21530000
H        1.50500000      -0.52000000       1.45240000
H       -2.28420000      -1.49400000       1.68160000
H       -2.19320000       0.11100000      -0.12210000
H       -1.49330000      -1.17470000      -1.12820000
H       -2.13140000      -3.60370000       2.27420000
