20
Properties=species:S:1:pos:R:3 gdb_71730=T pbc="F F F"
C       -0.11410000       1.45980000       0.10570000
C       -0.01720000      -0.03890000      -0.01390000
C       -0.43430000      -0.76280000      -1.28300000
C       -0.21040000      -2.18270000      -0.82290000
C        0.91280000      -2.25140000       0.14370000
N       -0.50000000      -2.34330000       0.63910000
C       -0.35210000      -0.93220000       1.16060000
C        1.08390000      -0.82630000       0.70740000
C        2.32000000      -0.28080000       1.35420000
H        0.55550000       1.96470000      -0.60000000
H       -1.13450000       1.80150000      -0.10180000
H        0.14660000       1.80330000       1.11130000
H       -1.48090000      -0.56650000      -1.54290000
H        0.19160000      -0.50750000      -2.14610000
H       -0.47990000      -3.03760000      -1.43310000
H        1.61090000      -3.07430000       0.25500000
H       -0.86330000      -0.62860000       2.06590000
H        2.14210000       0.70330000       1.79790000
H        2.67400000      -0.94270000       2.15280000
H        3.13530000      -0.17300000       0.62820000
