21
Properties=species:S:1:pos:R:3 gdb_118773=T pbc="F F F"
C       -0.07900000       1.50770000       0.15680000
C        0.07780000       0.00750000       0.07420000
O       -0.85580000      -0.62470000      -0.77010000
C        1.45940000      -0.62500000       0.15780000
C        0.44810000      -0.78120000       1.29400000
O        0.65940000      -0.01380000       2.44600000
C       -0.17370000      -2.14000000       1.55790000
C        0.78800000      -3.10250000       2.24570000
O        1.17910000      -2.53350000       3.50230000
H        0.59390000       1.92960000       0.90450000
H        0.13970000       1.97210000      -0.81280000
H       -1.10670000       1.76360000       0.43300000
H       -0.63760000      -0.38010000      -1.67630000
H        1.65010000      -1.47950000      -0.48430000
H        2.30790000       0.02550000       0.34020000
H        1.06640000      -0.61400000       3.08780000
H       -1.05850000      -2.00260000       2.19080000
H       -0.50930000      -2.58320000       0.61750000
H        0.30070000      -4.07520000       2.40540000
H        1.67030000      -3.26470000       1.60960000
H        1.90840000      -3.04720000       3.86050000
