20
Properties=species:S:1:pos:R:3 gdb_7389=T pbc="F F F"
C        0.02210000       1.53980000      -0.01020000
C       -0.00200000       0.01440000       0.03600000
O        0.71410000      -0.48910000       1.16010000
C       -1.43980000      -0.54910000      -0.00110000
O       -2.15590000      -0.03580000      -1.12510000
C       -1.46580000      -2.07680000       0.04150000
C       -2.87360000      -2.64590000       0.15890000
O       -2.77110000      -4.06280000       0.13910000
H        1.05260000       1.90410000      -0.03050000
H       -0.51140000       1.91040000      -0.88780000
H       -0.47260000       1.95700000       0.87710000
H        0.53690000      -0.38440000      -0.83550000
H        0.38280000      -0.03540000       1.94320000
H       -1.97900000      -0.14980000       0.87110000
H       -1.78530000      -0.44660000      -1.91490000
H       -0.99900000      -2.47420000      -0.87160000
H       -0.85430000      -2.42420000       0.87860000
H       -3.33700000      -2.29280000       1.09540000
H       -3.49350000      -2.27420000      -0.66970000
H       -3.66030000      -4.42690000       0.17430000
