16
Properties=species:S:1:pos:R:3 gdb_82129=T pbc="F F F"
O        0.19190000       1.35600000      -0.08630000
C        0.04590000      -0.03190000      -0.04450000
C        0.34070000      -0.70280000       1.30620000
O       -0.59460000      -0.10540000       2.22380000
C       -1.03740000      -1.20730000       1.41370000
C       -1.42600000      -0.63710000       0.04680000
C       -2.60960000       0.33420000       0.01250000
C       -2.82420000       0.91010000      -1.31350000
N       -3.00180000       1.33910000      -2.37140000
H       -0.07830000       1.69000000       0.77860000
H        0.60290000      -0.44960000      -0.88520000
H        1.27040000      -1.07360000       1.72100000
H       -1.42300000      -2.07600000       1.93410000
H       -1.55530000      -1.42870000      -0.69590000
H       -3.52700000      -0.18470000       0.31510000
H       -2.45050000       1.14210000       0.73250000
