20
Properties=species:S:1:pos:R:3 gdb_7826=T pbc="F F F"
C        0.00110000       1.52500000       0.07490000
C        0.04660000       0.00840000      -0.00860000
C        0.74220000      -0.52170000      -1.26870000
C        0.91040000      -2.03750000      -1.14830000
O        1.54740000      -2.37290000       0.07550000
C        0.84110000      -1.86690000       1.18520000
C        1.58700000      -2.25800000       2.44230000
O        0.73990000      -0.46240000       1.14740000
H        1.01460000       1.93750000       0.06600000
H       -0.55130000       1.93940000      -0.77400000
H       -0.48940000       1.84190000       0.99940000
H       -0.98370000      -0.39140000       0.01530000
H        0.16020000      -0.27090000      -2.16290000
H        1.72760000      -0.05060000      -1.35810000
H       -0.07520000      -2.53150000      -1.20550000
H        1.53650000      -2.44310000      -1.94760000
H       -0.18260000      -2.29410000       1.17430000
H        2.58870000      -1.82190000       2.42110000
H        1.05570000      -1.88790000       3.32190000
H        1.67290000      -3.34520000       2.50230000
