18
Properties=species:S:1:pos:R:3 gdb_64051=T pbc="F F F"
C        0.01890000       1.55040000      -0.05360000
C        0.03020000       0.01840000      -0.00220000
C       -1.41730000      -0.52510000       0.07200000
C        0.75890000      -0.56470000      -1.23310000
N        1.05460000      -1.98730000      -1.13240000
C        1.23670000      -2.44400000       0.02450000
O        1.21300000      -1.75690000       1.21930000
C        0.75400000      -0.44940000       1.25390000
O        0.91320000       0.17880000       2.25690000
H        1.03540000       1.95420000      -0.06700000
H       -0.49810000       1.88880000      -0.95730000
H       -0.49310000       1.96600000       0.81650000
H       -1.97980000      -0.17570000      -0.79960000
H       -1.44780000      -1.61770000       0.07540000
H       -1.92070000      -0.16260000       0.97250000
H        0.14860000      -0.39810000      -2.12730000
H        1.70540000      -0.03140000      -1.40100000
H        1.47500000      -3.48790000       0.20890000
