17
Properties=species:S:1:pos:R:3 gdb_8291=T pbc="F F F"
O        0.09230000       1.53630000       0.07850000
C        0.13100000       0.13350000      -0.00190000
C        0.22510000      -0.60700000       1.35970000
N       -1.24370000      -0.77830000       1.31770000
C       -1.83620000      -1.97690000       1.86030000
C       -3.35170000      -1.86520000       1.92480000
O       -4.11010000      -2.78780000       1.78490000
C       -1.24800000      -0.56270000      -0.14820000
H       -0.57410000       1.77210000       0.73430000
H        0.88710000      -0.11180000      -0.74780000
H        0.78100000      -1.55510000       1.28150000
H        0.60490000      -0.03350000       2.21230000
H       -1.56850000      -2.90290000       1.32060000
H       -1.49190000      -2.09330000       2.89910000
H       -3.70890000      -0.83110000       2.13390000
H       -2.07280000       0.04600000      -0.53360000
H       -1.18750000      -1.49970000      -0.72520000
