15
Properties=species:S:1:pos:R:3 gdb_4878=T pbc="F F F"
C       -0.14920000       1.57030000      -0.03210000
C        0.07490000       0.04890000       0.01110000
C        0.85300000      -0.46440000      -1.14520000
C        2.03330000      -1.08810000      -1.26440000
N        2.23390000      -1.31290000      -2.62880000
C        1.17120000      -0.82370000      -3.35200000
O        0.97290000      -0.82530000      -4.53590000
O        0.30790000      -0.29160000      -2.40850000
H        0.80400000       2.10670000      -0.00650000
H       -0.67390000       1.85720000      -0.94710000
H       -0.74930000       1.89390000       0.82310000
H        0.60780000      -0.23270000       0.92560000
H       -0.89800000      -0.45870000       0.04460000
H        2.74250000      -1.39150000      -0.51400000
H        3.01720000      -1.76370000      -3.06600000
