19
Properties=species:S:1:pos:R:3 gdb_119723=T pbc="F F F"
C       -0.07170000       1.39070000      -0.62300000
O       -0.07440000       0.04330000      -1.03410000
C        0.78930000      -0.76600000      -0.27120000
C        0.68850000      -2.16690000      -0.79160000
O        1.52140000      -3.15510000      -0.16070000
C        1.80860000      -3.75840000      -1.46280000
C        0.83570000      -2.82180000      -2.16180000
C       -0.48330000      -2.85630000      -1.39740000
O       -1.01400000      -4.01800000      -0.84320000
H       -0.40310000       1.49810000       0.42140000
H        0.92810000       1.84280000      -0.71510000
H       -0.76540000       1.92970000      -1.27230000
H        1.83170000      -0.41090000      -0.33910000
H        0.51120000      -0.75040000       0.79780000
H        2.85850000      -3.59640000      -1.72550000
H        1.57640000      -4.82880000      -1.47810000
H        0.94940000      -2.39100000      -3.14740000
H       -1.24340000      -2.19900000      -1.80600000
H       -0.43930000      -4.24580000      -0.09970000
