21
Properties=species:S:1:pos:R:3 gdb_36500=T pbc="F F F"
C       -0.10180000      -1.23410000       0.04370000
C       -0.07420000      -0.03220000       0.01980000
C       -0.01540000       1.42470000      -0.01800000
C        1.42120000       1.99180000       0.00390000
C        1.41350000       3.52150000      -0.12840000
C        2.84010000       4.07870000      -0.24200000
C        3.77610000       3.44180000       0.75230000
C        3.47840000       2.33650000       1.43400000
C        2.18690000       1.57760000       1.27080000
H       -0.13730000      -2.29490000       0.06580000
H       -0.52910000       1.78180000      -0.92030000
H       -0.57660000       1.83480000       0.83330000
H        1.95470000       1.57750000      -0.86230000
H        0.81820000       3.82840000      -0.99650000
H        0.92510000       3.95200000       0.75660000
H        3.22530000       3.92370000      -1.26120000
H        2.82990000       5.16690000      -0.09960000
H        4.73740000       3.92740000       0.90430000
H        4.19120000       1.93810000       2.15240000
H        1.55090000       1.73760000       2.15640000
H        2.38310000       0.49940000       1.24890000
