22
Properties=species:S:1:pos:R:3 gdb_61448=T pbc="F F F"
C        0.06700000       1.53210000       0.15260000
C        0.09090000       0.00510000      -0.00380000
C        0.70870000      -0.41460000      -1.34730000
C       -0.16490000      -0.04650000      -2.54590000
N        0.51170000       0.11870000      -3.72160000
O       -1.37310000       0.07790000      -2.47380000
C        0.81440000      -0.65920000       1.15310000
C        0.08980000      -0.93330000       2.44520000
C        0.48950000      -2.07860000       1.54510000
H        1.08340000       1.94530000       0.14090000
H       -0.50270000       1.99920000      -0.65520000
H       -0.39470000       1.81700000       1.10280000
H       -0.94650000      -0.35020000      -0.01430000
H        1.71290000       0.01350000      -1.46320000
H        0.83330000      -1.50550000      -1.36570000
H        1.49650000      -0.06280000      -3.80180000
H       -0.02480000       0.25610000      -4.56270000
H        1.85920000      -0.36890000       1.25230000
H        0.62280000      -0.80130000       3.38040000
H       -0.96370000      -0.67720000       2.49500000
H       -0.29900000      -2.58540000       0.99750000
H        1.29540000      -2.72980000       1.86570000
