23
Properties=species:S:1:pos:R:3 gdb_87137=T pbc="F F F"
C       -0.11680000       1.26860000      -0.30210000
C        0.24830000      -0.17520000      -0.03410000
C        1.68190000      -0.61720000       0.14040000
C        0.72290000      -0.69460000       1.30860000
C        0.93430000       0.26500000       2.46920000
C        0.18010000      -2.03190000       1.75290000
O       -1.10230000      -1.95220000       2.33750000
C        0.38200000      -3.30020000       0.98380000
C        1.10050000      -3.09550000       2.30450000
H        0.56230000       1.96670000       0.19520000
H       -0.07220000       1.48330000      -1.37580000
H       -1.13410000       1.49260000       0.03780000
H       -0.37840000      -0.88500000      -0.56850000
H        2.01850000      -1.52390000      -0.34970000
H        2.44240000       0.15690000       0.18970000
H        1.37970000       1.20900000       2.14770000
H       -0.01240000       0.50760000       2.96650000
H        1.60490000      -0.17770000       3.21490000
H       -1.00480000      -1.55000000       3.20690000
H       -0.46130000      -3.98070000       0.98040000
H        0.96430000      -3.29520000       0.07010000
H        2.16970000      -2.91330000       2.27790000
H        0.75110000      -3.66730000       3.15720000
