17
Properties=species:S:1:pos:R:3 gdb_43876=T pbc="F F F"
O        0.17730000       0.22200000      -0.80170000
C       -0.01580000       1.20600000      -0.16410000
C       -1.20130000       2.02910000       0.33400000
C       -0.11340000       2.92510000       0.95080000
C        0.13720000       4.42270000       0.62720000
C        0.29820000       4.69160000       2.13120000
C       -0.94730000       4.27040000       2.85080000
C        0.04250000       3.21150000       2.43490000
O        0.92150000       2.03340000       0.40300000
H       -1.80500000       2.47250000      -0.46000000
H       -1.84880000       1.50730000       1.04130000
H        1.06630000       4.52510000       0.06330000
H       -0.66250000       4.96640000       0.11360000
H        1.02800000       5.35640000       2.57410000
H       -0.97140000       4.47310000       3.91650000
H       -1.91790000       4.34510000       2.36460000
H        0.52400000       2.54730000       3.14140000
