19
Properties=species:S:1:pos:R:3 gdb_109543=T pbc="F F F"
C       -0.87030000       1.22870000       0.15860000
C       -0.04680000      -0.04620000       0.04710000
C        0.65560000      -0.48740000      -1.29660000
C        1.05200000       0.65090000      -2.23620000
O        1.87780000       0.18850000      -3.28480000
C        1.88220000      -1.00170000      -0.45220000
O        3.19350000      -0.76630000      -0.90330000
C        1.36220000      -0.07160000       0.64200000
O        1.96630000       0.63590000       1.40240000
H       -0.31380000       2.10070000      -0.19470000
H       -1.79400000       1.15200000      -0.42270000
H       -1.14250000       1.41250000       1.20200000
H       -0.61280000      -0.90180000       0.43500000
H        0.13820000      -1.26760000      -1.85700000
H        0.16080000       1.08460000      -2.70160000
H        1.54070000       1.45930000      -1.66620000
H        2.67000000      -0.16350000      -2.85780000
H        1.75540000      -2.06080000      -0.19660000
H        3.57520000      -0.10040000      -0.31510000
