21
Properties=species:S:1:pos:R:3 gdb_73493=T pbc="F F F"
C       -0.01130000       1.48750000       0.07320000
C        0.03990000      -0.01860000      -0.02730000
C        1.07710000      -0.67250000      -0.94710000
C        0.32240000      -1.81820000      -1.66320000
C       -0.83760000      -2.19790000      -0.71550000
C       -0.35850000      -3.02390000       0.49140000
O        0.25530000      -2.08590000       1.38420000
C       -0.36890000      -0.84130000       1.18140000
C       -1.22980000      -0.86410000      -0.04580000
H        0.93890000       1.89210000       0.44090000
H       -0.21240000       1.94550000      -0.90260000
H       -0.79790000       1.81650000       0.76060000
H        1.47550000       0.05600000      -1.65970000
H        1.92090000      -1.05710000      -0.36510000
H       -0.09800000      -1.44710000      -2.60450000
H        0.96540000      -2.67040000      -1.90770000
H       -1.66430000      -2.68730000      -1.23540000
H       -1.20740000      -3.51670000       0.98970000
H        0.38750000      -3.78380000       0.23860000
H       -0.65710000      -0.33860000       2.10020000
H       -2.23230000      -0.45660000      -0.09470000
