20
Properties=species:S:1:pos:R:3 gdb_98762=T pbc="F F F"
C        0.06860000       1.45300000       0.11640000
N       -0.10520000       0.01690000       0.20310000
C       -1.27320000      -0.61060000      -0.13340000
O       -2.25780000      -0.01290000      -0.53040000
C       -1.22720000      -2.12790000       0.01510000
C       -0.87700000      -2.76650000       1.41300000
C       -2.21140000      -3.51950000       1.36910000
C       -3.34810000      -2.54470000       1.25700000
C       -2.56170000      -2.87430000       0.02290000
H        0.87110000       1.71990000      -0.58090000
H       -0.87180000       1.86830000      -0.24820000
H        0.29710000       1.89060000       1.09500000
H        0.66120000      -0.54500000       0.53480000
H       -0.54980000      -2.52220000      -0.74980000
H       -0.00180000      -3.41830000       1.36450000
H       -0.75070000      -2.06940000       2.24890000
H       -2.35610000      -4.54280000       1.69230000
H       -4.34000000      -2.98350000       1.29370000
H       -3.28360000      -1.55540000       1.70190000
H       -3.02660000      -3.31490000      -0.84950000
