18
Properties=species:S:1:pos:R:3 gdb_44366=T pbc="F F F"
O        0.02620000      -0.12080000      -0.15010000
C        0.01380000       1.07690000       0.00390000
C       -1.28770000       1.85560000       0.16950000
C       -1.18530000       3.17270000       0.92160000
C       -0.57340000       3.38400000       2.25100000
C        0.60920000       2.46440000       2.52550000
C        1.18070000       2.95000000       1.16270000
C        1.26980000       1.92810000       0.03190000
N        0.06430000       3.96160000       0.98740000
H       -1.63130000       2.07540000      -0.85190000
H       -2.03880000       1.19240000       0.60990000
H       -2.02670000       3.83520000       0.72780000
H       -1.03770000       4.03120000       2.98890000
H        1.21380000       2.79790000       3.37030000
H        0.39840000       1.39720000       2.64930000
H        2.12390000       3.48880000       1.26650000
H        2.14000000       1.27400000       0.13290000
H        1.35550000       2.46660000      -0.92210000
