20
Properties=species:S:1:pos:R:3 gdb_90098=T pbc="F F F"
C        0.01900000       1.61520000       0.07620000
C        0.17590000       0.10630000       0.02040000
N        1.34410000      -0.48690000      -0.79610000
C        2.23570000      -0.12730000       0.44050000
C        0.94590000      -0.71350000       1.10200000
C        0.13110000      -1.61670000       2.06290000
C       -0.19620000      -2.49930000       0.75620000
O       -1.46950000      -2.34760000       0.18210000
C        1.04330000      -1.78570000       0.06080000
H       -0.13100000       2.00610000      -0.93630000
H       -0.87170000       1.86710000       0.66200000
H        0.86500000       2.14500000       0.51940000
H       -0.76540000      -0.33490000      -0.30520000
H        3.14280000      -0.73270000       0.51080000
H        2.47120000       0.93580000       0.50330000
H        0.73020000      -2.18570000       2.77940000
H       -0.72560000      -1.16760000       2.57510000
H        0.03410000      -3.56360000       0.90310000
H       -2.11010000      -2.78310000       0.75440000
H        1.90600000      -2.45590000       0.04750000
