16
Properties=species:S:1:pos:R:3 gdb_85697=T pbc="F F F"
C       -0.65220000       1.39390000      -0.02150000
C       -0.00100000       0.02870000      -0.02110000
O        1.24030000      -0.00250000      -0.79340000
C        1.99680000      -0.56610000       0.29290000
C        3.18090000       0.21880000       0.64260000
N        4.10670000       0.83670000       0.95330000
C        0.77180000      -0.43490000       1.21490000
C        0.67700000      -0.09000000       2.62840000
O        0.36050000      -1.40760000       2.13090000
H        0.02910000       2.15270000       0.37280000
H       -0.93250000       1.67500000      -1.04090000
H       -1.56180000       1.37970000       0.58810000
H       -0.69120000      -0.74400000      -0.38390000
H        2.28670000      -1.60780000       0.10490000
H        1.58350000      -0.02310000       3.22650000
H       -0.17310000       0.48600000       2.98800000
