18
Properties=species:S:1:pos:R:3 gdb_18082=T pbc="F F F"
C        0.77380000       1.14710000      -0.45740000
C        0.02140000      -0.12620000      -0.09400000
O       -0.24060000      -0.90750000      -1.26460000
C        0.42660000      -2.11900000      -1.33030000
C        0.90150000      -2.63550000      -2.65720000
C        1.52770000      -1.48080000      -3.43580000
O        2.41180000      -1.14640000      -2.32960000
C        1.90630000      -2.24270000      -1.57410000
H        1.72440000       0.89800000      -0.93470000
H        0.18480000       1.74960000      -1.15570000
H        0.96410000       1.74910000       0.43780000
H        0.59270000      -0.71890000       0.63160000
H       -0.94780000       0.11090000       0.36260000
H        0.03500000      -2.90390000      -0.67760000
H        0.61580000      -3.59440000      -3.06850000
H        2.11460000      -1.80460000      -4.30110000
H        0.86880000      -0.65010000      -3.70430000
H        2.60830000      -2.80450000      -0.96690000
