23
Properties=species:S:1:pos:R:3 gdb_75204=T pbc="F F F"
C        0.00910000       1.51340000       0.04000000
C       -0.00200000       0.01500000      -0.01510000
C       -0.02720000      -0.70410000      -1.14040000
C       -0.03610000      -2.21330000      -1.07010000
C       -0.01290000      -2.70510000       0.39220000
C       -0.02130000      -4.22000000       0.49250000
C       -1.06100000      -1.88970000       1.21360000
C        0.01640000      -0.76720000       1.28810000
C        1.07510000      -1.90410000       1.17480000
H        0.89940000       1.88470000       0.56470000
H       -0.00560000       1.95490000      -0.96040000
H       -0.85710000       1.89650000       0.59570000
H       -0.04170000      -0.22960000      -2.11860000
H       -0.92440000      -2.61500000      -1.58070000
H        0.82750000      -2.62690000      -1.61240000
H        0.85100000      -4.65560000      -0.00990000
H       -0.00470000      -4.54800000       1.53740000
H       -0.91690000      -4.64370000       0.02190000
H       -2.01610000      -1.64550000       0.74020000
H       -1.23760000      -2.35110000       2.19030000
H        0.03670000      -0.12090000       2.16800000
H        1.28070000      -2.36810000       2.14460000
H        2.01560000      -1.67270000       0.66710000
