19
Properties=species:S:1:pos:R:3 gdb_74730=T pbc="F F F"
C        0.09900000       1.42030000       0.10570000
C        0.01790000      -0.06390000       0.00710000
C        0.00870000      -0.87570000      -1.05160000
C       -0.06000000      -2.26140000      -0.43490000
C        1.05220000      -2.10900000       0.73990000
C       -0.01810000      -1.03100000       1.22220000
C       -1.13230000      -0.61920000       2.21910000
O       -2.12260000      -1.17720000       1.26650000
C       -1.03270000      -2.04440000       0.79630000
H        0.94890000       1.73850000       0.72320000
H        0.21290000       1.87050000      -0.88440000
H       -0.80140000       1.84890000       0.56290000
H        0.04900000      -0.64100000      -2.10600000
H       -0.08990000      -3.14360000      -1.07550000
H        1.15670000      -2.98530000       1.38510000
H        2.02520000      -1.73930000       0.41010000
H       -1.15040000      -1.17430000       3.16420000
H       -1.30550000       0.44580000       2.39400000
H       -1.06910000      -2.95940000       1.40110000
