17
Properties=species:S:1:pos:R:3 gdb_131666=T pbc="F F F"
O        0.77520000      -0.41440000       0.69770000
C       -0.04600000       0.33340000      -0.19270000
C       -1.46400000      -0.07980000       0.03900000
C       -2.67570000       0.52170000      -0.23260000
C       -3.64510000      -0.42460000       0.17340000
C       -5.13360000      -0.28370000       0.13510000
O       -5.49420000       0.35330000      -1.08610000
N       -3.08050000      -1.52670000       0.66320000
N       -1.75780000      -1.29310000       0.56500000
H        1.69050000      -0.30880000       0.42370000
H        0.05410000       1.41630000      -0.02790000
H        0.23760000       0.13740000      -1.23920000
H       -2.84740000       1.48980000      -0.67320000
H       -5.58360000      -1.28170000       0.23240000
H       -5.47410000       0.31560000       0.99580000
H       -6.43550000       0.54670000      -1.04760000
H       -1.09110000      -1.95790000       0.91920000
