18
Properties=species:S:1:pos:R:3 gdb_112360=T pbc="F F F"
C        0.10050000       1.60980000       0.13640000
C       -0.01040000       0.08640000       0.03010000
C        0.60400000      -0.50440000      -1.25300000
C        0.69410000      -2.04430000      -1.27160000
C        0.11590000      -2.48760000      -2.61210000
O        0.06920000      -3.59740000      -3.07560000
N       -0.38550000      -1.34240000      -3.22220000
C       -0.19350000      -0.15880000      -2.51840000
O       -0.59120000       0.92150000      -2.87890000
H        1.15010000       1.92530000       0.13960000
H       -0.39350000       2.09790000      -0.70540000
H       -0.35580000       1.96420000       1.06560000
H        0.49480000      -0.38140000       0.88400000
H       -1.06260000      -0.22000000       0.09330000
H        1.60000000      -0.06600000      -1.39380000
H        1.70890000      -2.43320000      -1.16370000
H        0.09180000      -2.49980000      -0.47810000
H       -0.86150000      -1.36750000      -4.11330000
