19
Properties=species:S:1:pos:R:3 gdb_70898=T pbc="F F F"
C        0.00500000       1.45080000       0.08970000
C       -0.01650000      -0.05140000      -0.02180000
C        0.73230000      -0.72510000      -1.20590000
C        0.54300000      -2.15390000      -0.72210000
C        0.47980000      -2.01740000       0.79190000
O        0.62900000      -0.65440000       1.12620000
C       -0.80020000      -2.19120000       0.02510000
O       -1.56250000      -3.33710000       0.17850000
C       -1.38280000      -0.78400000      -0.04630000
H        1.03520000       1.81550000       0.14040000
H       -0.48060000       1.90660000      -0.77830000
H       -0.51970000       1.77870000       0.99160000
H        0.25790000      -0.51650000      -2.16950000
H        1.78170000      -0.41710000      -1.24520000
H        0.95820000      -3.02970000      -1.20260000
H        0.87730000      -2.72600000       1.50420000
H       -1.97340000      -3.54190000      -0.66870000
H       -1.99580000      -0.54310000       0.82680000
H       -1.94870000      -0.58350000      -0.96180000
