19
Properties=species:S:1:pos:R:3 gdb_110135=T pbc="F F F"
C        0.08990000       1.07290000       0.63960000
O       -0.15940000       0.16460000      -0.41970000
C       -1.37000000      -0.48540000      -0.30450000
C       -1.52150000      -1.78460000      -0.99240000
O       -0.44250000      -2.26320000      -1.70520000
C       -0.46320000      -3.67070000      -1.87200000
C       -1.48230000      -1.76870000       0.55630000
C       -0.28140000      -2.27670000       1.25120000
O       -0.31550000      -2.84040000       2.32240000
H        1.04410000       1.55670000       0.42300000
H       -0.69660000       1.83870000       0.70410000
H        0.15570000       0.55580000       1.60690000
H       -2.24240000       0.17010000      -0.26750000
H       -2.49720000      -2.01540000      -1.42470000
H        0.40450000      -3.92940000      -2.48170000
H       -0.39780000      -4.19200000      -0.90690000
H       -1.37730000      -3.99970000      -2.38720000
H       -2.41390000      -1.94020000       1.08520000
H        0.67540000      -2.10610000       0.71900000
