22
Properties=species:S:1:pos:R:3 gdb_116053=T pbc="F F F"
C        0.11330000       1.62010000       0.07260000
C        0.06320000       0.08970000       0.00080000
C        0.63810000      -0.52470000      -1.29330000
C        0.83710000      -2.03670000      -1.14410000
C        1.65910000      -2.68470000      -2.26330000
N        1.14320000      -2.68190000      -3.62070000
C        0.60210000      -1.70360000      -4.19950000
O        0.25790000      -0.45350000      -3.78070000
C       -0.28150000      -0.21960000      -2.47650000
H        1.13830000       1.98640000      -0.05130000
H       -0.50320000       2.09680000      -0.69560000
H       -0.24970000       1.97330000       1.04270000
H        0.62550000      -0.31950000       0.84840000
H       -0.97140000      -0.25500000       0.13670000
H        1.61340000      -0.05700000      -1.49380000
H        1.35390000      -2.24550000      -0.19880000
H       -0.14320000      -2.52900000      -1.07730000
H        2.65010000      -2.20560000      -2.29080000
H        1.84150000      -3.73140000      -1.99530000
H        0.37960000      -1.78360000      -5.26510000
H       -1.20900000      -0.80160000      -2.37060000
H       -0.54990000       0.83850000      -2.49840000
