16
Properties=species:S:1:pos:R:3 gdb_9654=T pbc="F F F"
C       -0.41120000       1.00920000      -0.19850000
O        0.56830000       0.02280000       0.09110000
C        1.01450000      -0.64210000      -1.03230000
C        1.49890000      -2.04150000      -0.83400000
C        0.18820000      -1.80420000      -1.58650000
O       -1.00670000      -2.04420000      -0.89820000
C        0.15210000      -2.01840000      -3.00780000
C        0.11610000      -2.21320000      -4.19500000
H       -0.02210000       1.76580000      -0.89600000
H       -1.31360000       0.55740000      -0.62580000
H       -0.65880000       1.49420000       0.74820000
H        1.51160000      -0.01950000      -1.77800000
H        2.36490000      -2.38950000      -1.38410000
H        1.37480000      -2.43470000       0.16890000
H       -1.19420000      -2.98800000      -0.95270000
H        0.07940000      -2.37460000      -5.24380000
