18
Properties=species:S:1:pos:R:3 gdb_125906=T pbc="F F F"
C        0.12850000       1.46600000       0.08060000
C       -0.05650000      -0.04860000      -0.01750000
C        0.65840000      -0.64960000      -1.28650000
C        1.90160000      -1.24280000      -0.68680000
C        1.76630000      -1.24370000       0.67850000
N        2.85320000      -1.83510000       1.20880000
N        3.73370000      -2.22280000       0.22940000
C        3.14220000      -1.87060000      -0.91320000
N        0.55750000      -0.75040000       1.16460000
H        1.19260000       1.72580000       0.06590000
H       -0.35720000       1.96840000      -0.76210000
H       -0.31330000       1.86250000       1.00190000
H       -1.12510000      -0.28210000      -0.03320000
H        0.02300000      -1.40600000      -1.76340000
H        0.83550000       0.13320000      -2.03250000
H        3.09260000      -2.00160000       2.17010000
H        3.64710000      -2.08030000      -1.84540000
H        0.62350000      -0.15100000       1.97990000
