17
Properties=species:S:1:pos:R:3 gdb_65057=T pbc="F F F"
C        0.01240000       0.80000000      -1.37320000
C       -0.02620000       0.02760000      -0.07600000
C        1.19940000      -0.48210000       0.55410000
O        0.54300000       0.68770000       1.05600000
C       -1.32900000      -0.69650000       0.20040000
C       -1.93380000      -0.64070000       1.54600000
O       -2.44150000       0.17070000       0.48890000
C       -1.60940000      -1.81070000      -0.67490000
C       -1.80330000      -2.73550000      -1.41790000
H        0.97870000       1.29490000      -1.49290000
H       -0.15550000       0.13290000      -2.22380000
H       -0.77450000       1.56010000      -1.37450000
H        1.15340000      -1.35650000       1.20150000
H        2.15970000      -0.30800000       0.07170000
H       -2.58230000      -1.45530000       1.86270000
H       -1.39470000      -0.10820000       2.32490000
H       -1.98870000      -3.55310000      -2.07040000
