19
Properties=species:S:1:pos:R:3 gdb_61932=T pbc="F F F"
O        0.11580000       1.62570000      -0.06280000
C        0.10120000       0.20360000       0.03120000
C        0.68950000      -0.46860000      -1.21240000
C       -0.06580000      -0.08250000      -2.49920000
C        0.53090000      -0.65270000      -3.69990000
C        1.04440000      -1.13320000      -4.67480000
C        0.80740000      -0.25360000       1.29290000
C        0.08630000      -0.47270000       2.54900000
O        0.50780000      -1.57580000       1.73890000
H        1.02990000       1.90590000      -0.18770000
H       -0.95840000      -0.06500000       0.12040000
H        1.74700000      -0.18780000      -1.31280000
H        0.66590000      -1.55420000      -1.07250000
H       -1.11060000      -0.41000000      -2.41730000
H       -0.09720000       1.01020000      -2.57720000
H        1.48650000      -1.55360000      -5.54360000
H        1.86810000       0.00870000       1.34580000
H        0.60680000      -0.36760000       3.49940000
H       -0.98860000      -0.30230000       2.58400000
