14
Properties=species:S:1:pos:R:3 gdb_45865=T pbc="F F F"
O       -0.22740000       0.51570000       1.21400000
C       -0.09280000       1.41120000       0.43680000
O       -1.15620000       1.79300000      -0.34830000
C       -1.01680000       2.83000000      -1.25530000
N       -0.08530000       3.66690000      -1.34610000
C        1.01230000       3.56250000      -0.39520000
C        1.18550000       2.17190000       0.17560000
C        2.38790000       1.75730000       0.90570000
O        2.18030000       1.33580000      -0.44230000
H       -1.88150000       2.84830000      -1.91200000
H        1.94310000       3.85990000      -0.88710000
H        0.82980000       4.28500000       0.41280000
H        3.18450000       2.48620000       1.04800000
H        2.30170000       0.97830000       1.65840000
