20
Properties=species:S:1:pos:R:3 gdb_89042=T pbc="F F F"
N       -0.10530000       1.35240000       0.12170000
C        0.05920000       0.00780000      -0.06400000
O        1.15800000      -0.49760000      -0.18680000
C       -1.23710000      -0.79860000      -0.11800000
C       -1.05470000      -2.22550000       0.41110000
C       -2.28290000      -3.08360000       0.19630000
C       -2.51880000      -3.75240000      -1.14790000
C       -2.16740000      -4.57460000       0.06830000
O       -0.88780000      -5.12470000       0.18750000
H        0.70930000       1.94170000       0.06550000
H       -1.01220000       1.78350000       0.14580000
H       -2.03700000      -0.27690000       0.42180000
H       -1.54980000      -0.83660000      -1.17050000
H       -0.18750000      -2.67420000      -0.07660000
H       -0.81280000      -2.18820000       1.48050000
H       -3.17650000      -2.73570000       0.71030000
H       -3.52410000      -3.80860000      -1.55150000
H       -1.73470000      -3.63590000      -1.89000000
H       -2.96070000      -5.17580000       0.51370000
H       -0.80550000      -5.83070000      -0.46150000
