17
Properties=species:S:1:pos:R:3 gdb_55584=T pbc="F F F"
C        0.75620000       1.01880000       0.06330000
C       -0.09690000      -0.15040000       0.49030000
O       -0.05440000      -0.59910000       1.61900000
C       -1.04440000      -0.72760000      -0.56200000
C       -1.06230000      -2.24490000      -0.68300000
N       -1.02440000      -2.77260000      -1.83510000
N       -1.16100000      -2.90800000       0.55460000
C       -1.26080000      -4.26260000       0.73910000
O       -1.34850000      -5.09600000      -0.13630000
H        1.32730000       1.40160000       0.90950000
H        1.43770000       0.70030000      -0.73450000
H        0.12860000       1.81130000      -0.35980000
H       -2.05060000      -0.39020000      -0.27230000
H       -0.83880000      -0.32840000      -1.55490000
H       -1.08730000      -3.78950000      -1.76230000
H       -1.00180000      -2.32300000       1.37000000
H       -1.26120000      -4.52350000       1.81440000
