16
Properties=species:S:1:pos:R:3 gdb_102014=T pbc="F F F"
C        0.20390000       1.29930000       0.14260000
C       -0.08110000      -0.19570000       0.27050000
N       -1.51340000      -0.53360000       0.12100000
C       -1.96120000      -0.71540000      -1.20550000
O       -3.08470000      -0.90670000      -1.57030000
C       -2.38480000      -0.68490000       1.19820000
O       -3.52450000      -1.08040000       1.11850000
C       -1.93210000      -0.30260000       2.62350000
O       -0.98990000       0.36900000       2.94570000
H        1.28070000       1.47840000       0.21970000
H       -0.13670000       1.68520000      -0.82340000
H       -0.29260000       1.85550000       0.93950000
H        0.45150000      -0.75120000      -0.50840000
H        0.27120000      -0.57330000       1.22750000
H       -1.10120000      -0.65100000      -1.90100000
H       -2.67900000      -0.69080000       3.34420000
