20
Properties=species:S:1:pos:R:3 gdb_84811=T pbc="F F F"
O       -0.09150000       1.42460000      -0.09160000
C       -0.02490000       0.01160000      -0.04530000
C        0.75880000      -0.53100000       1.12790000
C        0.12580000      -1.52250000       1.74770000
C       -1.20210000      -1.84470000       1.10840000
C       -1.42710000      -0.68510000       0.10340000
N       -2.36770000       0.28620000       0.66270000
C       -3.18620000       1.02640000      -0.29360000
C       -3.78660000      -0.04090000       0.55080000
H       -0.66930000       1.67770000       0.64040000
H        0.44460000      -0.28090000      -0.99300000
H        1.73150000      -0.12810000       1.38650000
H        0.50470000      -2.07450000       2.60120000
H       -1.16780000      -2.81280000       0.59180000
H       -2.02030000      -1.90810000       1.83490000
H       -1.78680000      -1.06120000      -0.86720000
H       -3.35650000       2.07400000      -0.06370000
H       -3.04650000       0.81210000      -1.35100000
H       -4.05490000      -0.97450000       0.05920000
H       -4.40060000       0.21240000       1.41020000
