21
Properties=species:S:1:pos:R:3 gdb_41676=T pbc="F F F"
C        0.01420000       1.49430000       0.12780000
C        1.45080000       2.02020000      -0.02060000
C        2.21150000       1.24610000      -1.10150000
C        1.32720000       0.57660000      -2.22860000
C        2.39730000      -0.18540000      -3.01040000
C        3.14840000      -0.73920000      -2.05220000
C        2.47420000      -0.26880000      -0.76530000
C        0.95790000      -0.49200000      -1.12310000
C       -0.02940000      -0.03230000      -0.04600000
H       -0.42530000       1.79940000       1.08280000
H       -0.60420000       1.95000000      -0.65440000
H        1.43490000       3.08950000      -0.26180000
H        1.99980000       1.92970000       0.92680000
H        3.08740000       1.79490000      -1.45910000
H        0.56940000       1.13000000      -2.78520000
H        2.48910000      -0.23810000      -4.08610000
H        4.02320000      -1.36930000      -2.12840000
H        2.88620000      -0.57790000       0.19780000
H        0.71790000      -1.49040000      -1.49990000
H        0.21870000      -0.54000000       0.89620000
H       -1.04620000      -0.35070000      -0.30450000
