13
Properties=species:S:1:pos:R:3 gdb_130689=T pbc="F F F"
O       -0.04070000      -0.06090000       0.27290000
C       -0.03660000       1.13720000       0.09740000
N       -1.10680000       2.03110000       0.00720000
C       -0.61040000       3.29390000      -0.19090000
N        0.68350000       3.31260000      -0.23500000
N        1.04330000       1.99350000      -0.05490000
C        2.41920000       1.57220000      -0.07400000
C        3.02840000       1.64300000      -1.41110000
N        3.51920000       1.69750000      -2.45460000
H       -2.06900000       1.74760000       0.07520000
H       -1.23010000       4.17030000      -0.29470000
H        3.00830000       2.18110000       0.61880000
H        2.42830000       0.53450000       0.27430000
