18
Properties=species:S:1:pos:R:3 gdb_71802=T pbc="F F F"
O       -0.10670000       1.35660000      -0.01120000
C        0.04020000      -0.02240000      -0.03560000
C        1.06860000      -0.74240000      -0.89830000
N        0.72390000      -2.13610000      -0.60800000
C        0.49450000      -2.26220000       0.89180000
C       -0.66350000      -3.22890000       0.54730000
C       -0.79150000      -2.25340000      -0.64630000
C       -1.17710000      -0.90500000      -0.00320000
C       -0.19840000      -0.91400000       1.17030000
H        0.64730000       1.72950000       0.45880000
H        0.95170000      -0.52910000      -1.96600000
H        2.10490000      -0.53540000      -0.60560000
H        1.34590000      -2.55110000       1.50920000
H       -0.30440000      -4.21230000       0.24040000
H       -1.49860000      -3.30250000       1.24580000
H       -1.25280000      -2.53020000      -1.59480000
H       -2.18100000      -0.50910000       0.05650000
H       -0.43950000      -0.52940000       2.15160000
