19
Properties=species:S:1:pos:R:3 gdb_98524=T pbc="F F F"
C        0.09050000       1.44120000       0.16120000
C        0.27240000      -0.06660000       0.01890000
C        0.61860000      -0.50180000      -1.38920000
O        0.74400000       0.25660000      -2.32440000
C        0.81250000      -1.97960000      -1.59950000
C       -0.02430000      -2.96010000      -2.47040000
C        0.99820000      -3.75900000      -1.63080000
C        2.10160000      -2.74630000      -2.01260000
O        0.66050000      -2.91610000      -0.45610000
H        1.00220000       1.97350000      -0.12250000
H       -0.71030000       1.80150000      -0.48990000
H       -0.15730000       1.70420000       1.19310000
H        1.05830000      -0.45350000       0.68210000
H       -0.62590000      -0.62270000       0.32040000
H       -1.06530000      -3.06960000      -2.16530000
H        0.10970000      -2.91490000      -3.55260000
H        1.07040000      -4.83320000      -1.46420000
H        2.41450000      -2.68310000      -3.05630000
H        2.92770000      -2.66800000      -1.30540000
