16
Properties=species:S:1:pos:R:3 gdb_50633=T pbc="F F F"
N       -0.25460000       1.33310000       0.18780000
C       -0.13380000       0.09320000      -0.01100000
C       -1.32560000      -0.82170000      -0.16060000
C       -1.02060000      -1.98580000      -1.10250000
O        0.20680000      -2.59370000      -0.69980000
C        1.26170000      -1.70180000      -0.81220000
O        1.09650000      -0.52720000      -0.00740000
C        2.50630000      -2.40040000      -0.26050000
O        3.51630000      -2.54650000      -0.88900000
H        0.66420000       1.76740000       0.29870000
H       -1.55810000      -1.22870000       0.83080000
H       -2.18260000      -0.23410000      -0.49350000
H       -1.78610000      -2.76190000      -1.05060000
H       -0.94020000      -1.64410000      -2.14540000
H        1.42660000      -1.39310000      -1.85620000
H        2.37810000      -2.75700000       0.78270000
