21
Properties=species:S:1:pos:R:3 gdb_53386=T pbc="F F F"
C        0.19720000       1.47500000      -0.42180000
C        0.08440000       0.05650000      -0.11740000
C       -0.00590000      -1.11610000       0.14480000
C       -0.10300000      -2.53250000       0.43960000
O       -0.28240000      -2.83670000       1.84710000
C       -1.34360000      -3.76790000       1.55650000
C       -1.41150000      -3.32220000       0.07460000
C       -2.61490000      -2.43390000      -0.22730000
C       -1.23420000      -4.41390000      -0.97380000
H        1.04800000       1.67570000      -1.08190000
H       -0.70550000       1.85150000      -0.91540000
H        0.34230000       2.05980000       0.49320000
H        0.79120000      -3.04670000       0.05570000
H       -1.02580000      -4.80950000       1.70420000
H       -2.23400000      -3.57500000       2.16630000
H       -2.72630000      -1.64800000       0.52460000
H       -2.51280000      -1.94950000      -1.20370000
H       -3.53330000      -3.03170000      -0.23900000
H       -2.12660000      -5.04700000      -1.03470000
H       -1.06940000      -3.97980000      -1.96640000
H       -0.38060000      -5.05940000      -0.74230000
