16
Properties=species:S:1:pos:R:3 gdb_112235=T pbc="F F F"
O       -0.13480000       1.43360000      -0.30230000
C        0.00880000       0.03450000      -0.16080000
C       -1.30060000      -0.59640000       0.26520000
O       -2.31880000      -0.40530000      -0.78000000
C       -2.44250000      -1.76370000      -0.98420000
N       -3.12900000      -2.41720000      -1.79780000
C       -1.47180000      -2.14080000       0.13750000
C       -0.32330000      -2.95940000      -0.18850000
C        0.63410000      -3.63720000      -0.44750000
H       -0.81500000       1.57950000      -0.97010000
H        0.36310000      -0.44210000      -1.08610000
H        0.76600000      -0.13540000       0.61140000
H       -1.65790000      -0.16720000       1.20440000
H       -3.67800000      -1.80780000      -2.40620000
H       -2.01280000      -2.56160000       0.99080000
H        1.47420000      -4.24160000      -0.68650000
