22
Properties=species:S:1:pos:R:3 gdb_98889=T pbc="F F F"
C        0.01090000       1.50910000      -0.17640000
C       -0.04620000      -0.00380000       0.02360000
C       -1.48260000      -0.52340000       0.07530000
O       -2.44960000       0.22360000       0.04530000
N       -1.63350000      -1.87620000       0.15990000
C       -0.56940000      -2.88120000       0.18560000
C       -1.31320000      -4.18050000       0.53240000
C       -2.70540000      -3.96230000      -0.08330000
C       -2.97350000      -2.47420000       0.17600000
H        1.04800000       1.85700000      -0.18900000
H       -0.46420000       1.79540000      -1.11800000
H       -0.52400000       2.02540000       0.62360000
H        0.49710000      -0.52380000      -0.77590000
H        0.46200000      -0.28820000       0.95490000
H       -0.07390000      -2.96230000      -0.79320000
H        0.20130000      -2.63480000       0.92270000
H       -0.80060000      -5.06720000       0.15250000
H       -1.39510000      -4.28150000       1.62020000
H       -2.67400000      -4.15660000      -1.16110000
H       -3.47310000      -4.60790000       0.34890000
H       -3.45390000      -2.31070000       1.14970000
H       -3.60610000      -1.99890000      -0.57700000
