16
Properties=species:S:1:pos:R:3 gdb_75193=T pbc="F F F"
C       -0.09360000       1.52750000       0.00220000
C        0.02500000       0.04770000      -0.08040000
N       -0.08580000      -0.68080000      -1.11180000
C        0.09420000      -2.06450000      -0.66590000
C        0.51420000      -1.94630000       0.81170000
O        1.90300000      -2.21930000       0.92620000
C        2.38420000      -2.46360000       2.16990000
O        3.54400000      -2.63210000       2.38420000
O        0.27090000      -0.58210000       1.12470000
H        0.83940000       1.96070000       0.37600000
H       -0.31710000       1.93140000      -0.98440000
H       -0.88670000       1.80520000       0.70340000
H       -0.84200000      -2.62060000      -0.78090000
H        0.86810000      -2.57260000      -1.24640000
H       -0.04450000      -2.56440000       1.51970000
H        1.58960000      -2.50040000       2.93880000
