16
Properties=species:S:1:pos:R:3 gdb_73187=T pbc="F F F"
O       -0.13840000       1.53610000       0.14710000
C       -0.03370000       0.16300000      -0.00250000
C        0.44380000      -0.43000000      -1.35460000
C       -0.81440000      -1.35940000      -1.38480000
C       -1.26500000      -0.78820000      -0.02390000
O       -0.74060000      -1.54940000       1.09270000
C        0.37710000      -0.65600000       1.26550000
C        1.67380000      -1.32970000       1.26980000
N        2.71380000      -1.83400000       1.23750000
H        0.62630000       1.95430000      -0.26340000
H        0.43280000       0.32650000      -2.14320000
H        1.41930000      -0.92020000      -1.34340000
H       -1.50000000      -1.13500000      -2.20480000
H       -0.61910000      -2.43230000      -1.36060000
H       -2.30010000      -0.48080000       0.13160000
H        0.27220000      -0.05200000       2.17530000
