19
Properties=species:S:1:pos:R:3 gdb_106926=T pbc="F F F"
C       -0.41690000       1.43330000      -0.09930000
C        0.25680000       0.06510000       0.05930000
C        0.83470000      -0.48360000      -1.22880000
C        0.67090000      -1.90750000      -1.60510000
N       -0.11950000      -0.85680000      -2.29790000
C        0.49700000      -0.49370000      -3.55600000
O        0.01260000      -0.67990000      -4.64150000
N        1.70920000       0.09440000      -3.28690000
C        2.01240000       0.25200000      -1.88200000
H        0.29140000       2.20980000      -0.40620000
H       -1.20900000       1.38130000      -0.85150000
H       -0.86230000       1.75410000       0.84670000
H        1.05790000       0.11830000       0.80870000
H       -0.47520000      -0.65450000       0.44050000
H        1.45820000      -2.39670000      -2.17380000
H        0.08190000      -2.56690000      -0.97480000
H        2.27470000       0.45910000      -4.03490000
H        2.02590000       1.30690000      -1.57980000
H        2.98150000      -0.18630000      -1.61160000
