25
Properties=species:S:1:pos:R:3 gdb_122962=T pbc="F F F"
C       -0.13750000       1.55550000       0.04690000
C       -0.01520000       0.02980000       0.01740000
C        0.69770000      -0.49530000      -1.23360000
C        0.81380000      -2.02220000      -1.27130000
C        1.53110000      -2.54750000      -2.51990000
C        1.59030000      -4.07210000      -2.59830000
O        0.28360000      -4.66750000      -2.61780000
C        2.37860000      -4.58650000      -3.80570000
O        2.34420000      -5.99510000      -3.87030000
H        0.84860000       2.03270000       0.02250000
H       -0.70270000       1.92450000      -0.81640000
H       -0.65020000       1.89860000       0.95090000
H        0.52410000      -0.31240000       0.91050000
H       -1.01500000      -0.42030000       0.07820000
H        0.16150000      -0.14800000      -2.12830000
H        1.70070000      -0.04930000      -1.29340000
H        1.34910000      -2.37030000      -0.37740000
H       -0.18450000      -2.47280000      -1.21840000
H        1.03180000      -2.16550000      -3.42410000
H        2.55610000      -2.15470000      -2.55520000
H        2.05200000      -4.47640000      -1.68910000
H       -0.21530000      -4.24610000      -3.32850000
H        1.96440000      -4.12960000      -4.72460000
H        3.42880000      -4.28180000      -3.73580000
H        1.44280000      -6.23550000      -3.61730000
