16
Properties=species:S:1:pos:R:3 gdb_79387=T pbc="F F F"
O        0.16000000       1.45030000      -0.09030000
C        0.11660000       0.05640000      -0.06530000
C        0.04950000      -0.65530000       1.29410000
N       -1.44290000      -0.24700000       1.46280000
C       -1.78790000      -1.69240000       1.78340000
C       -0.70490000      -1.90470000       0.71690000
C       -0.15880000      -3.11200000       0.16520000
C        0.28940000      -4.13250000      -0.28790000
C       -1.25270000      -0.63860000      -0.03150000
H       -0.49100000       1.76050000       0.55310000
H        0.84440000      -0.32390000      -0.78500000
H        0.72860000      -0.63740000       2.14820000
H       -1.55290000      -1.98360000       2.81170000
H       -2.81540000      -1.96730000       1.52630000
H        0.68660000      -5.03200000      -0.68940000
H       -2.09410000      -0.60110000      -0.72550000
