17
Properties=species:S:1:pos:R:3 gdb_32651=T pbc="F F F"
C        0.04750000       1.53890000       0.05560000
C        0.02090000       0.01160000      -0.02720000
N        0.69270000      -0.50570000      -1.21260000
C        0.11040000      -0.90040000      -2.37480000
N        0.98810000      -1.28000000      -3.28230000
C        2.20520000      -1.12180000      -2.68600000
C        2.06480000      -0.64060000      -1.39670000
C        3.00780000      -0.33220000      -0.39990000
C        3.81330000      -0.06610000       0.45730000
H        1.07600000       1.90460000       0.10770000
H       -0.43640000       1.98590000      -0.81760000
H       -0.48210000       1.87260000       0.95310000
H        0.50340000      -0.42600000       0.85140000
H       -1.00860000      -0.35710000      -0.05430000
H       -0.96300000      -0.89540000      -2.49860000
H        3.12770000      -1.36150000      -3.19220000
H        4.53270000       0.16120000       1.20440000
