20
Properties=species:S:1:pos:R:3 gdb_104098=T pbc="F F F"
C       -0.18680000       1.64960000       0.13880000
C        0.01990000       0.15550000      -0.06750000
C       -1.31980000      -0.59460000      -0.15580000
O       -2.07160000      -0.47660000       1.03220000
C        0.96020000      -0.20110000      -1.23640000
C        1.74040000      -1.41560000      -0.71610000
C        1.68880000      -1.25200000       0.78730000
N        2.43370000      -1.83740000       1.62080000
O        0.70200000      -0.36160000       1.11720000
H        0.76570000       2.14100000       0.35390000
H       -0.61200000       2.09560000      -0.76620000
H       -0.87750000       1.82770000       0.96560000
H       -1.92660000      -0.16710000      -0.96130000
H       -1.12940000      -1.65080000      -0.40740000
H       -1.48550000      -0.74690000       1.74950000
H        0.40480000      -0.40320000      -2.15610000
H        1.63600000       0.63610000      -1.43450000
H        1.25570000      -2.35960000      -0.98690000
H        2.77210000      -1.47160000      -1.06430000
H        2.19030000      -1.56560000       2.57500000
