25
Properties=species:S:1:pos:R:3 gdb_58559=T pbc="F F F"
C       -0.48070000       1.26310000      -1.43790000
C       -0.25250000      -0.01840000      -0.61980000
C        0.74780000       0.23080000       0.51930000
C       -1.59000000      -0.62270000      -0.14050000
C       -2.29950000       0.21100000       0.92060000
O       -2.47000000      -0.81390000      -1.29440000
C       -2.42010000      -2.24470000      -1.17490000
C       -1.62440000      -2.16900000       0.14110000
C       -0.36570000      -3.01740000       0.25690000
H        0.45410000       1.58170000      -1.91050000
H       -1.22480000       1.09330000      -2.21890000
H       -0.82510000       2.09080000      -0.80820000
H        0.18880000      -0.75420000      -1.30430000
H        0.40280000       1.02980000       1.18360000
H        0.91770000      -0.66140000       1.12850000
H        1.71520000       0.54180000       0.11150000
H       -2.43600000       1.24570000       0.59370000
H       -3.28850000      -0.21070000       1.11940000
H       -1.73520000       0.21850000       1.85880000
H       -3.42050000      -2.69120000      -1.12430000
H       -1.87300000      -2.70770000      -2.00920000
H       -2.26740000      -2.36910000       1.00370000
H        0.34010000      -2.83020000      -0.55800000
H        0.15620000      -2.85050000       1.20410000
H       -0.63260000      -4.07990000       0.21820000
