21
Properties=species:S:1:pos:R:3 gdb_74045=T pbc="F F F"
C       -0.04770000       1.47930000      -0.04170000
C       -0.03170000      -0.01530000       0.02180000
C       -1.06710000      -0.85400000       0.03460000
C       -2.54530000      -0.79610000      -0.19880000
O       -2.90620000      -2.12770000      -0.60060000
C       -1.72420000      -2.88950000      -0.87620000
C       -0.65790000      -2.30750000       0.05790000
C        0.83190000      -2.24580000      -0.32970000
C        1.26730000      -0.81000000       0.08010000
H        0.56920000       1.84630000      -0.87180000
H       -1.06050000       1.87210000      -0.16790000
H        0.36920000       1.92130000       0.87290000
H       -3.12810000      -0.54970000       0.69900000
H       -2.81570000      -0.07030000      -0.98040000
H       -1.97220000      -3.94000000      -0.70120000
H       -1.41770000      -2.77130000      -1.92890000
H       -0.79310000      -2.73680000       1.06180000
H        1.43850000      -3.02610000       0.13730000
H        0.93170000      -2.35660000      -1.41580000
H        2.03550000      -0.39690000      -0.58520000
H        1.69930000      -0.79170000       1.09180000
