19
Properties=species:S:1:pos:R:3 gdb_50097=T pbc="F F F"
O       -0.14630000       0.35420000       0.78400000
C        0.38210000       0.82030000      -0.19320000
C        1.30750000       1.99100000      -0.14120000
O        2.21330000       2.12860000      -1.24390000
C        1.20280000       3.11690000      -1.10560000
C        0.16240000       3.23760000      -2.19800000
C        0.66010000       4.07940000      -3.35710000
C        1.54940000       3.46500000      -4.40860000
C        0.13020000       3.84800000      -4.74890000
H        0.22800000       0.39900000      -1.20980000
H        1.72180000       2.19240000       0.84590000
H        1.57880000       4.07300000      -0.73300000
H       -0.11280000       2.24160000      -2.55840000
H       -0.74420000       3.68540000      -1.76940000
H        0.87490000       5.11300000      -3.09590000
H        2.35660000       4.06330000      -4.81570000
H        1.78500000       2.41090000      -4.31120000
H       -0.59250000       3.05070000      -4.89000000
H       -0.03340000       4.70960000      -5.38650000
