18
Properties=species:S:1:pos:R:3 gdb_129869=T pbc="F F F"
N        0.21520000       1.30840000      -0.26770000
C        0.02870000      -0.06100000      -0.09160000
C       -1.11340000      -0.83860000      -0.02900000
C       -0.63160000      -2.13220000       0.26590000
N        0.68740000      -2.17430000       0.38050000
N        1.08430000      -0.88440000       0.15570000
C        2.45330000      -0.48650000       0.24710000
C        3.50500000      -1.47170000      -0.15210000
C        3.24910000      -0.27220000      -1.02850000
H        1.04950000       1.53400000      -0.79570000
H       -0.59200000       1.75680000      -0.67810000
H       -2.13110000      -0.51610000      -0.17830000
H       -1.20390000      -3.04020000       0.39330000
H        2.66320000       0.17590000       1.08260000
H        4.41200000      -1.49910000       0.43970000
H        3.14770000      -2.43490000      -0.49200000
H        2.73400000      -0.44300000      -1.96720000
H        3.97780000       0.53090000      -1.04340000
