14
Properties=species:S:1:pos:R:3 gdb_132906=T pbc="F F F"
C       -0.02970000       1.54470000       0.02190000
C       -0.00740000       0.04300000      -0.00490000
C       -0.03740000      -0.68750000      -1.14170000
O       -0.01840000      -2.02470000      -1.18790000
C        0.03600000      -2.82640000      -0.02090000
O        0.05050000      -4.01610000      -0.17030000
C        0.07030000      -2.08080000       1.21490000
C        0.04870000      -0.72900000       1.20010000
F        0.08000000      -0.04720000       2.34160000
H        0.86330000       1.94740000       0.51100000
H       -0.07330000       1.94660000      -0.99310000
H       -0.89630000       1.92010000       0.57580000
H       -0.08020000      -0.24840000      -2.13250000
H        0.11310000      -2.64030000       2.13900000
