22
Properties=species:S:1:pos:R:3 gdb_6934=T pbc="F F F"
C        0.09360000       1.52760000       0.23720000
C       -0.06510000       0.00560000       0.23520000
C       -1.37480000      -0.46090000      -0.41800000
C       -1.49980000      -1.96550000      -0.41690000
O       -1.77110000      -2.60730000       0.83900000
C       -2.73750000      -2.74580000      -0.21930000
C       -4.07850000      -2.09030000       0.03270000
C       -2.81910000      -4.14050000      -0.80620000
H        1.03340000       1.82930000       0.71000000
H        0.08970000       1.92950000      -0.78240000
H       -0.72370000       2.01040000       0.78450000
H        0.78390000      -0.45290000      -0.28880000
H       -0.03310000      -0.37620000       1.26240000
H       -2.22220000      -0.00600000       0.10410000
H       -1.41500000      -0.10780000      -1.45810000
H       -0.70930000      -2.46390000      -0.98660000
H       -3.97410000      -1.12500000       0.52950000
H       -4.62160000      -1.94400000      -0.90750000
H       -4.69280000      -2.73230000       0.67380000
H       -3.38520000      -4.80230000      -0.14130000
H       -3.32780000      -4.12740000      -1.77640000
H       -1.82140000      -4.56530000      -0.94090000
