18
Properties=species:S:1:pos:R:3 gdb_92387=T pbc="F F F"
C       -0.72180000       1.31050000       0.09580000
C        0.00940000      -0.00420000      -0.07410000
N        1.20920000       0.03310000      -0.96620000
C        2.03390000      -0.71990000       0.00070000
C        2.93820000       0.18500000       0.86440000
N        1.75820000       0.55940000       1.69780000
C        0.92540000      -0.50940000       1.08930000
C        0.42520000      -1.53010000       1.97860000
N        0.02880000      -2.34360000       2.70030000
H       -0.03790000       2.06820000       0.48370000
H       -1.11700000       1.65010000      -0.86690000
H       -1.56300000       1.19960000       0.78850000
H       -0.68590000      -0.80940000      -0.34790000
H        1.07680000      -0.43780000      -1.85290000
H        2.40690000      -1.69600000      -0.31060000
H        3.70450000      -0.38260000       1.40660000
H        3.39700000       1.03060000       0.34500000
H        1.88920000       0.46380000       2.69750000
