25
Properties=species:S:1:pos:R:3 gdb_119262=T pbc="F F F"
C       -0.17010000       1.51250000       2.39400000
C       -0.19290000      -0.01420000       2.27660000
C        0.95010000      -0.55970000       1.40870000
C        1.01520000      -2.08110000       1.32790000
C       -0.18190000      -2.79450000       0.71530000
C       -0.42900000      -2.45260000      -0.75130000
O       -1.50610000      -3.26270000      -1.20210000
C        2.37400000      -2.70160000       1.08940000
C        1.73200000      -2.79120000       2.45330000
H       -0.25980000       1.98730000       1.41040000
H       -0.99350000       1.87840000       3.01530000
H        0.76670000       1.86170000       2.84290000
H       -0.13020000      -0.46350000       3.27580000
H       -1.15820000      -0.32940000       1.86210000
H        0.87230000      -0.13240000       0.39930000
H        1.90350000      -0.19250000       1.81080000
H       -0.03300000      -3.87860000       0.78090000
H       -1.09550000      -2.57740000       1.28140000
H       -0.66930000      -1.38360000      -0.86130000
H        0.48650000      -2.64240000      -1.33460000
H       -1.68420000      -3.04130000      -2.12060000
H        2.42580000      -3.60640000       0.49240000
H        3.22810000      -2.04330000       0.96770000
H        2.15060000      -2.18720000       3.25200000
H        1.35470000      -3.75470000       2.77940000
