18
Properties=species:S:1:pos:R:3 gdb_22374=T pbc="F F F"
O       -0.24330000       1.34340000      -0.37450000
N       -0.06960000      -0.05440000      -0.34290000
C       -1.12340000      -0.63120000       0.05770000
C       -2.49240000      -0.18280000       0.53850000
C       -2.84830000      -1.69170000       0.74270000
O       -3.26810000      -2.08290000       2.01530000
C       -3.48140000      -2.39460000      -0.48990000
C       -2.05920000      -2.77370000      -1.00510000
C       -1.40880000      -2.10050000       0.24520000
H        0.62150000       1.64720000      -0.67020000
H       -2.43680000       0.35520000       1.49080000
H       -3.09620000       0.39920000      -0.16430000
H       -4.15680000      -1.73870000       2.16120000
H       -4.06780000      -3.26610000      -0.18950000
H       -4.09070000      -1.76600000      -1.14510000
H       -1.88590000      -3.85070000      -1.04490000
H       -1.76250000      -2.33930000      -1.96160000
H       -0.70990000      -2.69130000       0.83660000
